* NGSPICE file created from controller_core.ext - technology: gf180mcuC

* Black-box entry subcircuit for gf180mcu_fd_sc_mcu7t5v0__filltie abstract view
.subckt gf180mcu_fd_sc_mcu7t5v0__filltie VDD VSS
.ends

* Black-box entry subcircuit for gf180mcu_fd_sc_mcu7t5v0__fillcap_16 abstract view
.subckt gf180mcu_fd_sc_mcu7t5v0__fillcap_16 VDD VSS
.ends

* Black-box entry subcircuit for gf180mcu_fd_sc_mcu7t5v0__dffq_1 abstract view
.subckt gf180mcu_fd_sc_mcu7t5v0__dffq_1 D CLK Q VDD VSS
.ends

* Black-box entry subcircuit for gf180mcu_fd_sc_mcu7t5v0__fill_2 abstract view
.subckt gf180mcu_fd_sc_mcu7t5v0__fill_2 VDD VSS
.ends

* Black-box entry subcircuit for gf180mcu_fd_sc_mcu7t5v0__fill_1 abstract view
.subckt gf180mcu_fd_sc_mcu7t5v0__fill_1 VDD VSS
.ends

* Black-box entry subcircuit for gf180mcu_fd_sc_mcu7t5v0__nor2_1 abstract view
.subckt gf180mcu_fd_sc_mcu7t5v0__nor2_1 A1 A2 ZN VDD VSS
.ends

* Black-box entry subcircuit for gf180mcu_fd_sc_mcu7t5v0__mux2_2 abstract view
.subckt gf180mcu_fd_sc_mcu7t5v0__mux2_2 I0 I1 S Z VDD VSS
.ends

* Black-box entry subcircuit for gf180mcu_fd_sc_mcu7t5v0__antenna abstract view
.subckt gf180mcu_fd_sc_mcu7t5v0__antenna I VDD VSS
.ends

* Black-box entry subcircuit for gf180mcu_fd_sc_mcu7t5v0__fillcap_8 abstract view
.subckt gf180mcu_fd_sc_mcu7t5v0__fillcap_8 VDD VSS
.ends

* Black-box entry subcircuit for gf180mcu_fd_sc_mcu7t5v0__fillcap_32 abstract view
.subckt gf180mcu_fd_sc_mcu7t5v0__fillcap_32 VDD VSS
.ends

* Black-box entry subcircuit for gf180mcu_fd_sc_mcu7t5v0__fillcap_4 abstract view
.subckt gf180mcu_fd_sc_mcu7t5v0__fillcap_4 VDD VSS
.ends

* Black-box entry subcircuit for gf180mcu_fd_sc_mcu7t5v0__nor3_1 abstract view
.subckt gf180mcu_fd_sc_mcu7t5v0__nor3_1 A1 A2 A3 ZN VDD VSS
.ends

* Black-box entry subcircuit for gf180mcu_fd_sc_mcu7t5v0__oai211_2 abstract view
.subckt gf180mcu_fd_sc_mcu7t5v0__oai211_2 A1 A2 B C ZN VDD VSS
.ends

* Black-box entry subcircuit for gf180mcu_fd_sc_mcu7t5v0__clkbuf_2 abstract view
.subckt gf180mcu_fd_sc_mcu7t5v0__clkbuf_2 I Z VDD VSS
.ends

* Black-box entry subcircuit for gf180mcu_fd_sc_mcu7t5v0__aoi22_1 abstract view
.subckt gf180mcu_fd_sc_mcu7t5v0__aoi22_1 A1 A2 B1 B2 ZN VDD VSS
.ends

* Black-box entry subcircuit for gf180mcu_fd_sc_mcu7t5v0__clkbuf_1 abstract view
.subckt gf180mcu_fd_sc_mcu7t5v0__clkbuf_1 I Z VDD VSS
.ends

* Black-box entry subcircuit for gf180mcu_fd_sc_mcu7t5v0__buf_1 abstract view
.subckt gf180mcu_fd_sc_mcu7t5v0__buf_1 I Z VDD VSS
.ends

* Black-box entry subcircuit for gf180mcu_fd_sc_mcu7t5v0__xor2_1 abstract view
.subckt gf180mcu_fd_sc_mcu7t5v0__xor2_1 A1 A2 Z VDD VSS
.ends

* Black-box entry subcircuit for gf180mcu_fd_sc_mcu7t5v0__and2_1 abstract view
.subckt gf180mcu_fd_sc_mcu7t5v0__and2_1 A1 A2 Z VDD VSS
.ends

* Black-box entry subcircuit for gf180mcu_fd_sc_mcu7t5v0__oai22_1 abstract view
.subckt gf180mcu_fd_sc_mcu7t5v0__oai22_1 A1 A2 B1 B2 ZN VDD VSS
.ends

* Black-box entry subcircuit for gf180mcu_fd_sc_mcu7t5v0__clkinv_1 abstract view
.subckt gf180mcu_fd_sc_mcu7t5v0__clkinv_1 I ZN VDD VSS
.ends

* Black-box entry subcircuit for gf180mcu_fd_sc_mcu7t5v0__fillcap_64 abstract view
.subckt gf180mcu_fd_sc_mcu7t5v0__fillcap_64 VDD VSS
.ends

* Black-box entry subcircuit for gf180mcu_fd_sc_mcu7t5v0__nand2_1 abstract view
.subckt gf180mcu_fd_sc_mcu7t5v0__nand2_1 A1 A2 ZN VDD VSS
.ends

* Black-box entry subcircuit for gf180mcu_fd_sc_mcu7t5v0__clkbuf_16 abstract view
.subckt gf180mcu_fd_sc_mcu7t5v0__clkbuf_16 I Z VDD VSS
.ends

* Black-box entry subcircuit for gf180mcu_fd_sc_mcu7t5v0__nand3_1 abstract view
.subckt gf180mcu_fd_sc_mcu7t5v0__nand3_1 A1 A2 A3 ZN VDD VSS
.ends

* Black-box entry subcircuit for gf180mcu_fd_sc_mcu7t5v0__aoi21_1 abstract view
.subckt gf180mcu_fd_sc_mcu7t5v0__aoi21_1 A1 A2 B ZN VDD VSS
.ends

* Black-box entry subcircuit for gf180mcu_fd_sc_mcu7t5v0__nor4_2 abstract view
.subckt gf180mcu_fd_sc_mcu7t5v0__nor4_2 A1 A2 A3 A4 ZN VDD VSS
.ends

* Black-box entry subcircuit for gf180mcu_fd_sc_mcu7t5v0__clkbuf_4 abstract view
.subckt gf180mcu_fd_sc_mcu7t5v0__clkbuf_4 I Z VDD VSS
.ends

* Black-box entry subcircuit for gf180mcu_fd_sc_mcu7t5v0__inv_1 abstract view
.subckt gf180mcu_fd_sc_mcu7t5v0__inv_1 I ZN VDD VSS
.ends

* Black-box entry subcircuit for gf180mcu_fd_sc_mcu7t5v0__and3_1 abstract view
.subckt gf180mcu_fd_sc_mcu7t5v0__and3_1 A1 A2 A3 Z VDD VSS
.ends

* Black-box entry subcircuit for gf180mcu_fd_sc_mcu7t5v0__oai21_2 abstract view
.subckt gf180mcu_fd_sc_mcu7t5v0__oai21_2 A1 A2 B ZN VDD VSS
.ends

* Black-box entry subcircuit for gf180mcu_fd_sc_mcu7t5v0__nand4_4 abstract view
.subckt gf180mcu_fd_sc_mcu7t5v0__nand4_4 A1 A2 A3 A4 ZN VDD VSS
.ends

* Black-box entry subcircuit for gf180mcu_fd_sc_mcu7t5v0__oai21_1 abstract view
.subckt gf180mcu_fd_sc_mcu7t5v0__oai21_1 A1 A2 B ZN VDD VSS
.ends

* Black-box entry subcircuit for gf180mcu_fd_sc_mcu7t5v0__oai221_4 abstract view
.subckt gf180mcu_fd_sc_mcu7t5v0__oai221_4 A1 A2 B1 B2 C ZN VDD VSS
.ends

* Black-box entry subcircuit for gf180mcu_fd_sc_mcu7t5v0__nor4_4 abstract view
.subckt gf180mcu_fd_sc_mcu7t5v0__nor4_4 A1 A2 A3 A4 ZN VDD VSS
.ends

* Black-box entry subcircuit for gf180mcu_fd_sc_mcu7t5v0__oai31_1 abstract view
.subckt gf180mcu_fd_sc_mcu7t5v0__oai31_1 A1 A2 A3 B ZN VDD VSS
.ends

* Black-box entry subcircuit for gf180mcu_fd_sc_mcu7t5v0__nor3_2 abstract view
.subckt gf180mcu_fd_sc_mcu7t5v0__nor3_2 A1 A2 A3 ZN VDD VSS
.ends

* Black-box entry subcircuit for gf180mcu_fd_sc_mcu7t5v0__buf_2 abstract view
.subckt gf180mcu_fd_sc_mcu7t5v0__buf_2 I Z VDD VSS
.ends

* Black-box entry subcircuit for gf180mcu_fd_sc_mcu7t5v0__aoi22_2 abstract view
.subckt gf180mcu_fd_sc_mcu7t5v0__aoi22_2 A1 A2 B1 B2 ZN VDD VSS
.ends

* Black-box entry subcircuit for gf180mcu_fd_sc_mcu7t5v0__aoi211_1 abstract view
.subckt gf180mcu_fd_sc_mcu7t5v0__aoi211_1 A1 A2 B C ZN VDD VSS
.ends

* Black-box entry subcircuit for gf180mcu_fd_sc_mcu7t5v0__aoi221_1 abstract view
.subckt gf180mcu_fd_sc_mcu7t5v0__aoi221_1 A1 A2 B1 B2 C ZN VDD VSS
.ends

* Black-box entry subcircuit for gf180mcu_fd_sc_mcu7t5v0__nand4_1 abstract view
.subckt gf180mcu_fd_sc_mcu7t5v0__nand4_1 A1 A2 A3 A4 ZN VDD VSS
.ends

* Black-box entry subcircuit for gf180mcu_fd_sc_mcu7t5v0__and4_1 abstract view
.subckt gf180mcu_fd_sc_mcu7t5v0__and4_1 A1 A2 A3 A4 Z VDD VSS
.ends

* Black-box entry subcircuit for gf180mcu_fd_sc_mcu7t5v0__aoi222_1 abstract view
.subckt gf180mcu_fd_sc_mcu7t5v0__aoi222_1 A1 A2 B1 B2 C1 C2 ZN VDD VSS
.ends

* Black-box entry subcircuit for gf180mcu_fd_sc_mcu7t5v0__oai221_1 abstract view
.subckt gf180mcu_fd_sc_mcu7t5v0__oai221_1 A1 A2 B1 B2 C ZN VDD VSS
.ends

* Black-box entry subcircuit for gf180mcu_fd_sc_mcu7t5v0__oai211_1 abstract view
.subckt gf180mcu_fd_sc_mcu7t5v0__oai211_1 A1 A2 B C ZN VDD VSS
.ends

* Black-box entry subcircuit for gf180mcu_fd_sc_mcu7t5v0__oai32_1 abstract view
.subckt gf180mcu_fd_sc_mcu7t5v0__oai32_1 A1 A2 A3 B1 B2 ZN VDD VSS
.ends

* Black-box entry subcircuit for gf180mcu_fd_sc_mcu7t5v0__nand3_4 abstract view
.subckt gf180mcu_fd_sc_mcu7t5v0__nand3_4 A1 A2 A3 ZN VDD VSS
.ends

* Black-box entry subcircuit for gf180mcu_fd_sc_mcu7t5v0__endcap abstract view
.subckt gf180mcu_fd_sc_mcu7t5v0__endcap VDD VSS
.ends

* Black-box entry subcircuit for gf180mcu_fd_sc_mcu7t5v0__oai22_2 abstract view
.subckt gf180mcu_fd_sc_mcu7t5v0__oai22_2 A1 A2 B1 B2 ZN VDD VSS
.ends

* Black-box entry subcircuit for gf180mcu_fd_sc_mcu7t5v0__nor4_1 abstract view
.subckt gf180mcu_fd_sc_mcu7t5v0__nor4_1 A1 A2 A3 A4 ZN VDD VSS
.ends

* Black-box entry subcircuit for gf180mcu_fd_sc_mcu7t5v0__or2_1 abstract view
.subckt gf180mcu_fd_sc_mcu7t5v0__or2_1 A1 A2 Z VDD VSS
.ends

* Black-box entry subcircuit for gf180mcu_fd_sc_mcu7t5v0__nand3_2 abstract view
.subckt gf180mcu_fd_sc_mcu7t5v0__nand3_2 A1 A2 A3 ZN VDD VSS
.ends

* Black-box entry subcircuit for gf180mcu_fd_sc_mcu7t5v0__nand4_2 abstract view
.subckt gf180mcu_fd_sc_mcu7t5v0__nand4_2 A1 A2 A3 A4 ZN VDD VSS
.ends

* Black-box entry subcircuit for gf180mcu_fd_sc_mcu7t5v0__buf_4 abstract view
.subckt gf180mcu_fd_sc_mcu7t5v0__buf_4 I Z VDD VSS
.ends

* Black-box entry subcircuit for gf180mcu_fd_sc_mcu7t5v0__aoi211_4 abstract view
.subckt gf180mcu_fd_sc_mcu7t5v0__aoi211_4 A1 A2 B C ZN VDD VSS
.ends

* Black-box entry subcircuit for gf180mcu_fd_sc_mcu7t5v0__aoi222_2 abstract view
.subckt gf180mcu_fd_sc_mcu7t5v0__aoi222_2 A1 A2 B1 B2 C1 C2 ZN VDD VSS
.ends

* Black-box entry subcircuit for gf180mcu_fd_sc_mcu7t5v0__oai221_2 abstract view
.subckt gf180mcu_fd_sc_mcu7t5v0__oai221_2 A1 A2 B1 B2 C ZN VDD VSS
.ends

* Black-box entry subcircuit for gf180mcu_fd_sc_mcu7t5v0__dffq_2 abstract view
.subckt gf180mcu_fd_sc_mcu7t5v0__dffq_2 D CLK Q VDD VSS
.ends

* Black-box entry subcircuit for gf180mcu_fd_sc_mcu7t5v0__nor2_2 abstract view
.subckt gf180mcu_fd_sc_mcu7t5v0__nor2_2 A1 A2 ZN VDD VSS
.ends

* Black-box entry subcircuit for gf180mcu_fd_sc_mcu7t5v0__aoi221_2 abstract view
.subckt gf180mcu_fd_sc_mcu7t5v0__aoi221_2 A1 A2 B1 B2 C ZN VDD VSS
.ends

* Black-box entry subcircuit for gf180mcu_fd_sc_mcu7t5v0__clkinv_2 abstract view
.subckt gf180mcu_fd_sc_mcu7t5v0__clkinv_2 I ZN VDD VSS
.ends

* Black-box entry subcircuit for gf180mcu_fd_sc_mcu7t5v0__aoi211_2 abstract view
.subckt gf180mcu_fd_sc_mcu7t5v0__aoi211_2 A1 A2 B C ZN VDD VSS
.ends

* Black-box entry subcircuit for gf180mcu_fd_sc_mcu7t5v0__or3_1 abstract view
.subckt gf180mcu_fd_sc_mcu7t5v0__or3_1 A1 A2 A3 Z VDD VSS
.ends

* Black-box entry subcircuit for gf180mcu_fd_sc_mcu7t5v0__xnor2_1 abstract view
.subckt gf180mcu_fd_sc_mcu7t5v0__xnor2_1 A1 A2 ZN VDD VSS
.ends

.subckt controller_core clock clock_out[0] clock_out[1] clock_out[2] clock_out[3]
+ clock_out[4] clock_out[5] clock_out[6] clock_out[7] clock_out[8] clock_out[9] col_select_left[0]
+ col_select_left[1] col_select_left[2] col_select_left[3] col_select_left[4] col_select_left[5]
+ col_select_right[0] col_select_right[1] col_select_right[2] col_select_right[3]
+ col_select_right[4] col_select_right[5] data_out_left[0] data_out_left[10] data_out_left[11]
+ data_out_left[12] data_out_left[13] data_out_left[14] data_out_left[15] data_out_left[1]
+ data_out_left[2] data_out_left[3] data_out_left[4] data_out_left[5] data_out_left[6]
+ data_out_left[7] data_out_left[8] data_out_left[9] data_out_right[0] data_out_right[10]
+ data_out_right[11] data_out_right[12] data_out_right[13] data_out_right[14] data_out_right[15]
+ data_out_right[1] data_out_right[2] data_out_right[3] data_out_right[4] data_out_right[5]
+ data_out_right[6] data_out_right[7] data_out_right[8] data_out_right[9] inverter_select[0]
+ inverter_select[1] inverter_select[2] inverter_select[3] inverter_select[4] inverter_select[5]
+ inverter_select[6] inverter_select[7] inverter_select[8] inverter_select[9] io_control_trigger_in
+ io_control_trigger_oeb io_driver_io_oeb[0] io_driver_io_oeb[10] io_driver_io_oeb[11]
+ io_driver_io_oeb[12] io_driver_io_oeb[13] io_driver_io_oeb[14] io_driver_io_oeb[15]
+ io_driver_io_oeb[16] io_driver_io_oeb[17] io_driver_io_oeb[18] io_driver_io_oeb[19]
+ io_driver_io_oeb[1] io_driver_io_oeb[2] io_driver_io_oeb[3] io_driver_io_oeb[4]
+ io_driver_io_oeb[5] io_driver_io_oeb[6] io_driver_io_oeb[7] io_driver_io_oeb[8]
+ io_driver_io_oeb[9] io_latch_data_in io_latch_data_oeb io_reset_n_in io_reset_n_oeb
+ io_update_cycle_complete_oeb io_update_cycle_complete_out la_data_in[0] la_data_in[10]
+ la_data_in[11] la_data_in[12] la_data_in[13] la_data_in[14] la_data_in[15] la_data_in[16]
+ la_data_in[17] la_data_in[1] la_data_in[2] la_data_in[3] la_data_in[4] la_data_in[5]
+ la_data_in[6] la_data_in[7] la_data_in[8] la_data_in[9] la_oenb[0] la_oenb[10] la_oenb[11]
+ la_oenb[12] la_oenb[13] la_oenb[14] la_oenb[15] la_oenb[16] la_oenb[17] la_oenb[1]
+ la_oenb[2] la_oenb[3] la_oenb[4] la_oenb[5] la_oenb[6] la_oenb[7] la_oenb[8] la_oenb[9]
+ mem_address_left[0] mem_address_left[1] mem_address_left[2] mem_address_left[3]
+ mem_address_left[4] mem_address_left[5] mem_address_left[6] mem_address_left[7]
+ mem_address_left[8] mem_address_left[9] mem_address_right[0] mem_address_right[1]
+ mem_address_right[2] mem_address_right[3] mem_address_right[4] mem_address_right[5]
+ mem_address_right[6] mem_address_right[7] mem_address_right[8] mem_address_right[9]
+ mem_write_n[0] mem_write_n[1] mem_write_n[2] mem_write_n[3] mem_write_n[4] mem_write_n[5]
+ mem_write_n[6] mem_write_n[7] mem_write_n[8] mem_write_n[9] output_active_left output_active_right
+ row_col_select[0] row_col_select[1] row_col_select[2] row_col_select[3] row_col_select[4]
+ row_col_select[5] row_col_select[6] row_col_select[7] row_col_select[8] row_col_select[9]
+ row_select_left[0] row_select_left[1] row_select_left[2] row_select_left[3] row_select_left[4]
+ row_select_left[5] row_select_right[0] row_select_right[1] row_select_right[2] row_select_right[3]
+ row_select_right[4] row_select_right[5] spi_data[0] spi_data[10] spi_data[11] spi_data[12]
+ spi_data[13] spi_data[14] spi_data[15] spi_data[16] spi_data[17] spi_data[18] spi_data[19]
+ spi_data[1] spi_data[20] spi_data[21] spi_data[22] spi_data[23] spi_data[24] spi_data[25]
+ spi_data[26] spi_data[27] spi_data[28] spi_data[29] spi_data[2] spi_data[30] spi_data[31]
+ spi_data[3] spi_data[4] spi_data[5] spi_data[6] spi_data[7] spi_data[8] spi_data[9]
+ spi_data_clock vccd1 vssd1
XTAP_199 vccd1 vssd1 gf180mcu_fd_sc_mcu7t5v0__filltie
XTAP_188 vccd1 vssd1 gf180mcu_fd_sc_mcu7t5v0__filltie
XTAP_177 vccd1 vssd1 gf180mcu_fd_sc_mcu7t5v0__filltie
XFILLER_41_1249 vccd1 vssd1 gf180mcu_fd_sc_mcu7t5v0__fillcap_16
X_3155_ spi_data_crossing\[18\].A clknet_leaf_8_clock spi_data_crossing\[18\].data_sync
+ vccd1 vssd1 gf180mcu_fd_sc_mcu7t5v0__dffq_1
XFILLER_27_417 vccd1 vssd1 gf180mcu_fd_sc_mcu7t5v0__fill_2
XFILLER_27_428 vccd1 vssd1 gf180mcu_fd_sc_mcu7t5v0__fill_1
X_3086_ _0220_ clknet_leaf_5_clock u1.timer\[0\] vccd1 vssd1 gf180mcu_fd_sc_mcu7t5v0__dffq_1
X_2106_ _0402_ _0493_ _0495_ vccd1 vssd1 gf180mcu_fd_sc_mcu7t5v0__nor2_1
X_2037_ u1.ccr1\[31\] _0389_ _0426_ _0446_ vccd1 vssd1 gf180mcu_fd_sc_mcu7t5v0__mux2_2
XFILLER_23_601 vccd1 vssd1 gf180mcu_fd_sc_mcu7t5v0__fill_2
XFILLER_39_1189 vccd1 vssd1 gf180mcu_fd_sc_mcu7t5v0__fill_2
XFILLER_22_144 vccd1 vssd1 gf180mcu_fd_sc_mcu7t5v0__fill_2
XFILLER_23_678 vccd1 vssd1 gf180mcu_fd_sc_mcu7t5v0__fill_2
XANTENNA__2403__B1 _0691_ vccd1 vssd1 gf180mcu_fd_sc_mcu7t5v0__antenna
X_2939_ _0081_ clknet_leaf_34_clock u1.ordering_complete\[1\] vccd1 vssd1 gf180mcu_fd_sc_mcu7t5v0__dffq_1
XANTENNA__1757__A2 _1342_ vccd1 vssd1 gf180mcu_fd_sc_mcu7t5v0__antenna
XFILLER_11_1064 vccd1 vssd1 gf180mcu_fd_sc_mcu7t5v0__fill_1
XANTENNA__2706__A1 _0958_ vccd1 vssd1 gf180mcu_fd_sc_mcu7t5v0__antenna
XANTENNA__3132__CLK net72 vccd1 vssd1 gf180mcu_fd_sc_mcu7t5v0__antenna
XFILLER_46_726 vccd1 vssd1 gf180mcu_fd_sc_mcu7t5v0__fillcap_8
XANTENNA__3171__D spi_data_crossing\[26\].A vccd1 vssd1 gf180mcu_fd_sc_mcu7t5v0__antenna
XFILLER_18_417 vccd1 vssd1 gf180mcu_fd_sc_mcu7t5v0__fillcap_8
XFILLER_19_929 vccd1 vssd1 gf180mcu_fd_sc_mcu7t5v0__fill_2
XFILLER_14_612 vccd1 vssd1 gf180mcu_fd_sc_mcu7t5v0__fillcap_32
XFILLER_41_420 vccd1 vssd1 gf180mcu_fd_sc_mcu7t5v0__fillcap_4
XFILLER_13_144 vccd1 vssd1 gf180mcu_fd_sc_mcu7t5v0__fill_1
XFILLER_14_667 vccd1 vssd1 gf180mcu_fd_sc_mcu7t5v0__fillcap_4
XANTENNA__1996__A2 _0394_ vccd1 vssd1 gf180mcu_fd_sc_mcu7t5v0__antenna
XFILLER_42_40 vccd1 vssd1 gf180mcu_fd_sc_mcu7t5v0__fillcap_8
XFILLER_9_137 vccd1 vssd1 gf180mcu_fd_sc_mcu7t5v0__fillcap_4
XFILLER_13_188 vccd1 vssd1 gf180mcu_fd_sc_mcu7t5v0__fill_2
XANTENNA__2796__I1 _0363_ vccd1 vssd1 gf180mcu_fd_sc_mcu7t5v0__antenna
XFILLER_10_851 vccd1 vssd1 gf180mcu_fd_sc_mcu7t5v0__fill_2
XANTENNA__1942__I u0.cmd\[13\] vccd1 vssd1 gf180mcu_fd_sc_mcu7t5v0__antenna
XANTENNA__2712__A4 _0961_ vccd1 vssd1 gf180mcu_fd_sc_mcu7t5v0__antenna
XFILLER_27_1082 vccd1 vssd1 gf180mcu_fd_sc_mcu7t5v0__fill_2
XFILLER_3_89 vccd1 vssd1 gf180mcu_fd_sc_mcu7t5v0__fillcap_4
XFILLER_49_597 vccd1 vssd1 gf180mcu_fd_sc_mcu7t5v0__fill_2
XANTENNA__2476__A3 _1085_ vccd1 vssd1 gf180mcu_fd_sc_mcu7t5v0__antenna
XFILLER_36_247 vccd1 vssd1 gf180mcu_fd_sc_mcu7t5v0__fill_1
XANTENNA__2773__I net8 vccd1 vssd1 gf180mcu_fd_sc_mcu7t5v0__antenna
XFILLER_18_951 vccd1 vssd1 gf180mcu_fd_sc_mcu7t5v0__fillcap_4
XFILLER_18_973 vccd1 vssd1 gf180mcu_fd_sc_mcu7t5v0__fill_2
XFILLER_45_792 vccd1 vssd1 gf180mcu_fd_sc_mcu7t5v0__fill_2
XFILLER_17_461 vccd1 vssd1 gf180mcu_fd_sc_mcu7t5v0__fill_1
XFILLER_34_1031 vccd1 vssd1 gf180mcu_fd_sc_mcu7t5v0__fill_1
XANTENNA__2722__B _0282_ vccd1 vssd1 gf180mcu_fd_sc_mcu7t5v0__antenna
XFILLER_9_671 vccd1 vssd1 gf180mcu_fd_sc_mcu7t5v0__fill_2
XANTENNA__3005__CLK clknet_leaf_35_clock vccd1 vssd1 gf180mcu_fd_sc_mcu7t5v0__antenna
XFILLER_34_1097 vccd1 vssd1 gf180mcu_fd_sc_mcu7t5v0__fill_2
X_2724_ _0968_ _0973_ _0974_ _0237_ vccd1 vssd1 gf180mcu_fd_sc_mcu7t5v0__nor3_1
X_2655_ u1.ccr1\[18\] _0920_ _0921_ _0922_ _0923_ vccd1 vssd1 gf180mcu_fd_sc_mcu7t5v0__oai211_2
XFILLER_8_192 vccd1 vssd1 gf180mcu_fd_sc_mcu7t5v0__fillcap_4
X_1606_ _1223_ _1224_ vccd1 vssd1 gf180mcu_fd_sc_mcu7t5v0__clkbuf_2
XANTENNA__3155__CLK clknet_leaf_8_clock vccd1 vssd1 gf180mcu_fd_sc_mcu7t5v0__antenna
X_2586_ _1153_ _0864_ _0865_ spi_data_crossing\[29\].data_sync _0867_ vccd1 vssd1
+ gf180mcu_fd_sc_mcu7t5v0__aoi22_1
XANTENNA__2164__A2 _0530_ vccd1 vssd1 gf180mcu_fd_sc_mcu7t5v0__antenna
X_1537_ _1157_ u0.latch_cmd vccd1 vssd1 gf180mcu_fd_sc_mcu7t5v0__clkbuf_1
XANTENNA__1911__A2 _0361_ vccd1 vssd1 gf180mcu_fd_sc_mcu7t5v0__antenna
X_1468_ _1072_ _1093_ vccd1 vssd1 gf180mcu_fd_sc_mcu7t5v0__buf_1
XFILLER_45_1193 vccd1 vssd1 gf180mcu_fd_sc_mcu7t5v0__fillcap_8
X_3207_ _0277_ clknet_leaf_38_clock net159 vccd1 vssd1 gf180mcu_fd_sc_mcu7t5v0__dffq_1
X_3138_ net41 net72 spi_data_crossing\[10\].A vccd1 vssd1 gf180mcu_fd_sc_mcu7t5v0__dffq_1
XFILLER_43_707 vccd1 vssd1 gf180mcu_fd_sc_mcu7t5v0__fill_2
XANTENNA__2683__I _0933_ vccd1 vssd1 gf180mcu_fd_sc_mcu7t5v0__antenna
XTAP_1107 vccd1 vssd1 gf180mcu_fd_sc_mcu7t5v0__filltie
X_3069_ _0210_ clknet_leaf_13_clock u1.row_sel\[0\] vccd1 vssd1 gf180mcu_fd_sc_mcu7t5v0__dffq_1
XFILLER_23_420 vccd1 vssd1 gf180mcu_fd_sc_mcu7t5v0__fill_2
XFILLER_23_475 vccd1 vssd1 gf180mcu_fd_sc_mcu7t5v0__fill_2
XFILLER_23_464 vccd1 vssd1 gf180mcu_fd_sc_mcu7t5v0__fill_2
XFILLER_17_1273 vccd1 vssd1 gf180mcu_fd_sc_mcu7t5v0__fillcap_4
XFILLER_3_847 vccd1 vssd1 gf180mcu_fd_sc_mcu7t5v0__fillcap_4
XFILLER_2_346 vccd1 vssd1 gf180mcu_fd_sc_mcu7t5v0__fill_1
XFILLER_2_324 vccd1 vssd1 gf180mcu_fd_sc_mcu7t5v0__fill_2
XFILLER_24_1244 vccd1 vssd1 gf180mcu_fd_sc_mcu7t5v0__fillcap_8
XFILLER_19_715 vccd1 vssd1 gf180mcu_fd_sc_mcu7t5v0__fill_2
XFILLER_46_534 vccd1 vssd1 gf180mcu_fd_sc_mcu7t5v0__fillcap_16
XFILLER_18_225 vccd1 vssd1 gf180mcu_fd_sc_mcu7t5v0__fillcap_4
XFILLER_19_726 vccd1 vssd1 gf180mcu_fd_sc_mcu7t5v0__fill_2
XFILLER_37_73 vccd1 vssd1 gf180mcu_fd_sc_mcu7t5v0__fill_1
XFILLER_34_707 vccd1 vssd1 gf180mcu_fd_sc_mcu7t5v0__fill_2
XFILLER_24_1299 vccd1 vssd1 gf180mcu_fd_sc_mcu7t5v0__fill_2
XFILLER_18_247 vccd1 vssd1 gf180mcu_fd_sc_mcu7t5v0__fill_1
XFILLER_34_729 vccd1 vssd1 gf180mcu_fd_sc_mcu7t5v0__fillcap_4
XFILLER_33_206 vccd1 vssd1 gf180mcu_fd_sc_mcu7t5v0__fill_2
XFILLER_26_291 vccd1 vssd1 gf180mcu_fd_sc_mcu7t5v0__fill_2
XFILLER_2_1095 vccd1 vssd1 gf180mcu_fd_sc_mcu7t5v0__fillcap_4
XANTENNA__1969__A2 _0400_ vccd1 vssd1 gf180mcu_fd_sc_mcu7t5v0__antenna
XFILLER_30_913 vccd1 vssd1 gf180mcu_fd_sc_mcu7t5v0__fill_2
XANTENNA__3028__CLK clknet_leaf_31_clock vccd1 vssd1 gf180mcu_fd_sc_mcu7t5v0__antenna
XANTENNA__2091__A1 u0.cmd\[15\] vccd1 vssd1 gf180mcu_fd_sc_mcu7t5v0__antenna
XFILLER_15_976 vccd1 vssd1 gf180mcu_fd_sc_mcu7t5v0__fill_1
XFILLER_41_283 vccd1 vssd1 gf180mcu_fd_sc_mcu7t5v0__fill_1
XFILLER_41_272 vccd1 vssd1 gf180mcu_fd_sc_mcu7t5v0__fill_2
XFILLER_35_1351 vccd1 vssd1 gf180mcu_fd_sc_mcu7t5v0__fillcap_32
XFILLER_30_968 vccd1 vssd1 gf180mcu_fd_sc_mcu7t5v0__fill_2
XANTENNA__3178__CLK net72 vccd1 vssd1 gf180mcu_fd_sc_mcu7t5v0__antenna
XFILLER_31_1259 vccd1 vssd1 gf180mcu_fd_sc_mcu7t5v0__fill_2
X_2440_ _0754_ _0755_ _0734_ _0759_ _0760_ vccd1 vssd1 gf180mcu_fd_sc_mcu7t5v0__aoi22_1
XANTENNA__1672__I u1.timer\[7\] vccd1 vssd1 gf180mcu_fd_sc_mcu7t5v0__antenna
X_2371_ _1100_ _0694_ _0699_ vccd1 vssd1 gf180mcu_fd_sc_mcu7t5v0__xor2_1
XFILLER_42_1311 vccd1 vssd1 gf180mcu_fd_sc_mcu7t5v0__fill_2
XFILLER_2_880 vccd1 vssd1 gf180mcu_fd_sc_mcu7t5v0__fill_1
XANTENNA__1657__A1 _1247_ vccd1 vssd1 gf180mcu_fd_sc_mcu7t5v0__antenna
XFILLER_37_567 vccd1 vssd1 gf180mcu_fd_sc_mcu7t5v0__fill_1
XFILLER_32_250 vccd1 vssd1 gf180mcu_fd_sc_mcu7t5v0__fill_1
XFILLER_21_902 vccd1 vssd1 gf180mcu_fd_sc_mcu7t5v0__fillcap_4
XFILLER_36_1148 vccd1 vssd1 gf180mcu_fd_sc_mcu7t5v0__fill_2
XFILLER_32_283 vccd1 vssd1 gf180mcu_fd_sc_mcu7t5v0__fill_1
XFILLER_21_946 vccd1 vssd1 gf180mcu_fd_sc_mcu7t5v0__fill_2
XFILLER_32_294 vccd1 vssd1 gf180mcu_fd_sc_mcu7t5v0__fillcap_4
X_2707_ _1311_ _0961_ _0963_ vccd1 vssd1 gf180mcu_fd_sc_mcu7t5v0__and2_1
X_2638_ u1.ccr1\[11\] _1269_ u1.ccr1\[10\] _1268_ _0906_ vccd1 vssd1 gf180mcu_fd_sc_mcu7t5v0__oai22_1
X_2569_ _0856_ _0200_ vccd1 vssd1 gf180mcu_fd_sc_mcu7t5v0__clkinv_1
XANTENNA__1582__I u1.ccr1\[6\] vccd1 vssd1 gf180mcu_fd_sc_mcu7t5v0__antenna
XFILLER_47_1299 vccd1 vssd1 gf180mcu_fd_sc_mcu7t5v0__fill_2
XFILLER_47_1277 vccd1 vssd1 gf180mcu_fd_sc_mcu7t5v0__fill_1
XANTENNA_input36_I la_oenb[6] vccd1 vssd1 gf180mcu_fd_sc_mcu7t5v0__antenna
XFILLER_28_534 vccd1 vssd1 gf180mcu_fd_sc_mcu7t5v0__fillcap_8
XFILLER_16_707 vccd1 vssd1 gf180mcu_fd_sc_mcu7t5v0__fill_2
XANTENNA__3302__I net168 vccd1 vssd1 gf180mcu_fd_sc_mcu7t5v0__antenna
XFILLER_23_283 vccd1 vssd1 gf180mcu_fd_sc_mcu7t5v0__fill_1
XFILLER_12_957 vccd1 vssd1 gf180mcu_fd_sc_mcu7t5v0__fill_1
XFILLER_11_467 vccd1 vssd1 gf180mcu_fd_sc_mcu7t5v0__fill_2
XANTENNA__2128__A2 _0500_ vccd1 vssd1 gf180mcu_fd_sc_mcu7t5v0__antenna
XFILLER_2_143 vccd1 vssd1 gf180mcu_fd_sc_mcu7t5v0__fillcap_16
XFILLER_26_1317 vccd1 vssd1 gf180mcu_fd_sc_mcu7t5v0__fill_1
XANTENNA_clkbuf_leaf_15_clock_I clknet_2_1__leaf_clock vccd1 vssd1 gf180mcu_fd_sc_mcu7t5v0__antenna
XFILLER_24_1052 vccd1 vssd1 gf180mcu_fd_sc_mcu7t5v0__fill_1
XFILLER_4_1102 vccd1 vssd1 gf180mcu_fd_sc_mcu7t5v0__fillcap_64
XFILLER_17_9 vccd1 vssd1 gf180mcu_fd_sc_mcu7t5v0__fillcap_4
XFILLER_47_854 vccd1 vssd1 gf180mcu_fd_sc_mcu7t5v0__fill_2
XFILLER_46_342 vccd1 vssd1 gf180mcu_fd_sc_mcu7t5v0__fill_2
XFILLER_19_556 vccd1 vssd1 gf180mcu_fd_sc_mcu7t5v0__fillcap_4
XFILLER_34_515 vccd1 vssd1 gf180mcu_fd_sc_mcu7t5v0__fill_2
XANTENNA__2300__A2 _0627_ vccd1 vssd1 gf180mcu_fd_sc_mcu7t5v0__antenna
XFILLER_19_567 vccd1 vssd1 gf180mcu_fd_sc_mcu7t5v0__fill_1
XFILLER_0_79 vccd1 vssd1 gf180mcu_fd_sc_mcu7t5v0__fillcap_8
XFILLER_21_209 vccd1 vssd1 gf180mcu_fd_sc_mcu7t5v0__fillcap_4
XFILLER_42_570 vccd1 vssd1 gf180mcu_fd_sc_mcu7t5v0__fill_2
XFILLER_14_250 vccd1 vssd1 gf180mcu_fd_sc_mcu7t5v0__fill_1
X_1940_ u0.cmd\[12\] _0383_ _0384_ vccd1 vssd1 gf180mcu_fd_sc_mcu7t5v0__nand2_1
X_1871_ u1.col_sel\[0\] _0332_ _0334_ vccd1 vssd1 gf180mcu_fd_sc_mcu7t5v0__nor2_1
XFILLER_30_743 vccd1 vssd1 gf180mcu_fd_sc_mcu7t5v0__fill_2
XFILLER_31_1067 vccd1 vssd1 gf180mcu_fd_sc_mcu7t5v0__fill_1
XFILLER_43_2 vccd1 vssd1 gf180mcu_fd_sc_mcu7t5v0__fill_1
X_2423_ u1.ordering_timer\[20\] _0719_ _0734_ _0744_ _0745_ vccd1 vssd1 gf180mcu_fd_sc_mcu7t5v0__aoi22_1
X_2354_ _1103_ _0683_ _0684_ vccd1 vssd1 gf180mcu_fd_sc_mcu7t5v0__nand2_1
XFILLER_38_821 vccd1 vssd1 gf180mcu_fd_sc_mcu7t5v0__fill_2
X_2285_ u1.ordering_timer\[4\] _0623_ vccd1 vssd1 gf180mcu_fd_sc_mcu7t5v0__clkbuf_1
XFILLER_38_854 vccd1 vssd1 gf180mcu_fd_sc_mcu7t5v0__fill_2
XFILLER_38_898 vccd1 vssd1 gf180mcu_fd_sc_mcu7t5v0__fill_2
XFILLER_37_397 vccd1 vssd1 gf180mcu_fd_sc_mcu7t5v0__fill_2
XFILLER_25_526 vccd1 vssd1 gf180mcu_fd_sc_mcu7t5v0__fill_2
XFILLER_33_570 vccd1 vssd1 gf180mcu_fd_sc_mcu7t5v0__fill_1
XANTENNA__1802__A1 _0281_ vccd1 vssd1 gf180mcu_fd_sc_mcu7t5v0__antenna
XFILLER_20_242 vccd1 vssd1 gf180mcu_fd_sc_mcu7t5v0__fill_2
XANTENNA__2358__A2 _0687_ vccd1 vssd1 gf180mcu_fd_sc_mcu7t5v0__antenna
XFILLER_49_1328 vccd1 vssd1 gf180mcu_fd_sc_mcu7t5v0__fill_2
XFILLER_47_1030 vccd1 vssd1 gf180mcu_fd_sc_mcu7t5v0__fill_2
XANTENNA__2201__I _0552_ vccd1 vssd1 gf180mcu_fd_sc_mcu7t5v0__antenna
XANTENNA__1869__A1 _1212_ vccd1 vssd1 gf180mcu_fd_sc_mcu7t5v0__antenna
XFILLER_47_1096 vccd1 vssd1 gf180mcu_fd_sc_mcu7t5v0__fill_1
XFILLER_47_106 vccd1 vssd1 gf180mcu_fd_sc_mcu7t5v0__fill_2
XFILLER_29_854 vccd1 vssd1 gf180mcu_fd_sc_mcu7t5v0__fillcap_8
XFILLER_18_53 vccd1 vssd1 gf180mcu_fd_sc_mcu7t5v0__fillcap_8
XFILLER_21_1236 vccd1 vssd1 gf180mcu_fd_sc_mcu7t5v0__fill_2
XFILLER_44_802 vccd1 vssd1 gf180mcu_fd_sc_mcu7t5v0__fill_2
XFILLER_29_898 vccd1 vssd1 gf180mcu_fd_sc_mcu7t5v0__fillcap_16
XFILLER_28_364 vccd1 vssd1 gf180mcu_fd_sc_mcu7t5v0__fill_2
XANTENNA__2294__A1 _0611_ vccd1 vssd1 gf180mcu_fd_sc_mcu7t5v0__antenna
XFILLER_16_515 vccd1 vssd1 gf180mcu_fd_sc_mcu7t5v0__fill_2
XFILLER_16_537 vccd1 vssd1 gf180mcu_fd_sc_mcu7t5v0__fillcap_8
XFILLER_19_1110 vccd1 vssd1 gf180mcu_fd_sc_mcu7t5v0__fill_1
XFILLER_19_1121 vccd1 vssd1 gf180mcu_fd_sc_mcu7t5v0__fill_2
XFILLER_34_96 vccd1 vssd1 gf180mcu_fd_sc_mcu7t5v0__fill_2
XFILLER_11_231 vccd1 vssd1 gf180mcu_fd_sc_mcu7t5v0__fill_2
XANTENNA__1487__I u1.ordering_complete\[8\] vccd1 vssd1 gf180mcu_fd_sc_mcu7t5v0__antenna
XFILLER_15_1007 vccd1 vssd1 gf180mcu_fd_sc_mcu7t5v0__fill_2
XFILLER_8_747 vccd1 vssd1 gf180mcu_fd_sc_mcu7t5v0__fillcap_8
XANTENNA__2860__CLK clknet_leaf_7_clock vccd1 vssd1 gf180mcu_fd_sc_mcu7t5v0__antenna
XFILLER_11_286 vccd1 vssd1 gf180mcu_fd_sc_mcu7t5v0__fillcap_4
XFILLER_7_279 vccd1 vssd1 gf180mcu_fd_sc_mcu7t5v0__fillcap_4
XTAP_507 vccd1 vssd1 gf180mcu_fd_sc_mcu7t5v0__filltie
XANTENNA__3216__CLK clknet_leaf_22_clock vccd1 vssd1 gf180mcu_fd_sc_mcu7t5v0__antenna
XFILLER_3_496 vccd1 vssd1 gf180mcu_fd_sc_mcu7t5v0__fill_1
XTAP_518 vccd1 vssd1 gf180mcu_fd_sc_mcu7t5v0__filltie
XTAP_529 vccd1 vssd1 gf180mcu_fd_sc_mcu7t5v0__filltie
XFILLER_26_1147 vccd1 vssd1 gf180mcu_fd_sc_mcu7t5v0__fill_2
X_2070_ _0471_ _0086_ vccd1 vssd1 gf180mcu_fd_sc_mcu7t5v0__clkbuf_1
XFILLER_47_695 vccd1 vssd1 gf180mcu_fd_sc_mcu7t5v0__fill_2
XFILLER_46_172 vccd1 vssd1 gf180mcu_fd_sc_mcu7t5v0__fillcap_4
XFILLER_46_183 vccd1 vssd1 gf180mcu_fd_sc_mcu7t5v0__fill_2
XFILLER_22_507 vccd1 vssd1 gf180mcu_fd_sc_mcu7t5v0__fillcap_4
X_2972_ _0114_ clknet_leaf_14_clock u1.row_limit\[2\] vccd1 vssd1 gf180mcu_fd_sc_mcu7t5v0__dffq_1
XFILLER_34_389 vccd1 vssd1 gf180mcu_fd_sc_mcu7t5v0__fill_1
XFILLER_34_378 vccd1 vssd1 gf180mcu_fd_sc_mcu7t5v0__fillcap_4
XFILLER_15_570 vccd1 vssd1 gf180mcu_fd_sc_mcu7t5v0__fill_1
XANTENNA__2588__A2 _0864_ vccd1 vssd1 gf180mcu_fd_sc_mcu7t5v0__antenna
XFILLER_37_1265 vccd1 vssd1 gf180mcu_fd_sc_mcu7t5v0__fillcap_8
X_1923_ u0.cmd\[7\] _0372_ vccd1 vssd1 gf180mcu_fd_sc_mcu7t5v0__buf_1
Xclkbuf_leaf_19_clock clknet_2_3__leaf_clock clknet_leaf_19_clock vccd1 vssd1 gf180mcu_fd_sc_mcu7t5v0__clkbuf_16
X_1854_ u1.col_sel\[1\] _0317_ vccd1 vssd1 gf180mcu_fd_sc_mcu7t5v0__clkbuf_1
XFILLER_30_595 vccd1 vssd1 gf180mcu_fd_sc_mcu7t5v0__fill_2
X_1785_ u0.timer_enable _1402_ vccd1 vssd1 gf180mcu_fd_sc_mcu7t5v0__clkbuf_1
XFILLER_7_780 vccd1 vssd1 gf180mcu_fd_sc_mcu7t5v0__fill_1
XFILLER_6_290 vccd1 vssd1 gf180mcu_fd_sc_mcu7t5v0__fillcap_4
X_2406_ _0729_ _0723_ _0730_ vccd1 vssd1 gf180mcu_fd_sc_mcu7t5v0__xor2_1
X_2337_ _0669_ _0155_ vccd1 vssd1 gf180mcu_fd_sc_mcu7t5v0__clkinv_1
X_2268_ _0599_ _0601_ _0604_ _0608_ _0609_ vccd1 vssd1 gf180mcu_fd_sc_mcu7t5v0__aoi22_1
XFILLER_38_662 vccd1 vssd1 gf180mcu_fd_sc_mcu7t5v0__fillcap_8
X_2199_ _0551_ _0135_ vccd1 vssd1 gf180mcu_fd_sc_mcu7t5v0__clkbuf_1
XFILLER_37_194 vccd1 vssd1 gf180mcu_fd_sc_mcu7t5v0__fill_2
XFILLER_25_367 vccd1 vssd1 gf180mcu_fd_sc_mcu7t5v0__fill_2
XFILLER_0_1363 vccd1 vssd1 gf180mcu_fd_sc_mcu7t5v0__fill_2
XFILLER_40_315 vccd1 vssd1 gf180mcu_fd_sc_mcu7t5v0__fillcap_4
XANTENNA__2028__A1 _0381_ vccd1 vssd1 gf180mcu_fd_sc_mcu7t5v0__antenna
XANTENNA__2883__CLK clknet_leaf_13_clock vccd1 vssd1 gf180mcu_fd_sc_mcu7t5v0__antenna
XFILLER_21_551 vccd1 vssd1 gf180mcu_fd_sc_mcu7t5v0__fill_1
XANTENNA__3239__CLK clknet_leaf_9_clock vccd1 vssd1 gf180mcu_fd_sc_mcu7t5v0__antenna
XFILLER_14_1062 vccd1 vssd1 gf180mcu_fd_sc_mcu7t5v0__fill_2
XANTENNA__2640__B _0907_ vccd1 vssd1 gf180mcu_fd_sc_mcu7t5v0__antenna
XANTENNA__2200__A1 u0.cmd\[19\] vccd1 vssd1 gf180mcu_fd_sc_mcu7t5v0__antenna
XFILLER_1_901 vccd1 vssd1 gf180mcu_fd_sc_mcu7t5v0__fill_1
XFILLER_27_1401 vccd1 vssd1 gf180mcu_fd_sc_mcu7t5v0__fill_1
XFILLER_0_422 vccd1 vssd1 gf180mcu_fd_sc_mcu7t5v0__fill_2
XFILLER_1_978 vccd1 vssd1 gf180mcu_fd_sc_mcu7t5v0__fillcap_4
XFILLER_1_967 vccd1 vssd1 gf180mcu_fd_sc_mcu7t5v0__fillcap_4
XFILLER_49_927 vccd1 vssd1 gf180mcu_fd_sc_mcu7t5v0__fill_2
XFILLER_0_466 vccd1 vssd1 gf180mcu_fd_sc_mcu7t5v0__fillcap_4
XFILLER_48_437 vccd1 vssd1 gf180mcu_fd_sc_mcu7t5v0__fill_2
XFILLER_21_1011 vccd1 vssd1 gf180mcu_fd_sc_mcu7t5v0__fill_1
XFILLER_28_172 vccd1 vssd1 gf180mcu_fd_sc_mcu7t5v0__fillcap_4
XFILLER_1_1138 vccd1 vssd1 gf180mcu_fd_sc_mcu7t5v0__fillcap_8
XFILLER_44_676 vccd1 vssd1 gf180mcu_fd_sc_mcu7t5v0__fill_1
XFILLER_45_73 vccd1 vssd1 gf180mcu_fd_sc_mcu7t5v0__fillcap_32
XFILLER_16_345 vccd1 vssd1 gf180mcu_fd_sc_mcu7t5v0__fill_1
XFILLER_16_356 vccd1 vssd1 gf180mcu_fd_sc_mcu7t5v0__fillcap_8
XANTENNA__2019__A1 _0372_ vccd1 vssd1 gf180mcu_fd_sc_mcu7t5v0__antenna
XANTENNA__1490__A2 _1110_ vccd1 vssd1 gf180mcu_fd_sc_mcu7t5v0__antenna
XFILLER_16_389 vccd1 vssd1 gf180mcu_fd_sc_mcu7t5v0__fill_1
XFILLER_12_540 vccd1 vssd1 gf180mcu_fd_sc_mcu7t5v0__fill_2
XANTENNA__1778__B1 _1344_ vccd1 vssd1 gf180mcu_fd_sc_mcu7t5v0__antenna
XFILLER_32_1173 vccd1 vssd1 gf180mcu_fd_sc_mcu7t5v0__fill_1
XFILLER_32_1151 vccd1 vssd1 gf180mcu_fd_sc_mcu7t5v0__fill_2
XANTENNA__1945__I u0.cmd\[14\] vccd1 vssd1 gf180mcu_fd_sc_mcu7t5v0__antenna
X_1570_ u1.timer\[6\] _1188_ vccd1 vssd1 gf180mcu_fd_sc_mcu7t5v0__buf_1
XFILLER_3_271 vccd1 vssd1 gf180mcu_fd_sc_mcu7t5v0__fill_2
XTAP_304 vccd1 vssd1 gf180mcu_fd_sc_mcu7t5v0__filltie
XTAP_315 vccd1 vssd1 gf180mcu_fd_sc_mcu7t5v0__filltie
X_3240_ u0.cmd\[22\] clknet_leaf_10_clock net168 vccd1 vssd1 gf180mcu_fd_sc_mcu7t5v0__dffq_1