* NGSPICE file created from driver_core.ext - technology: gf180mcuC

* Black-box entry subcircuit for gf180mcu_fd_sc_mcu7t5v0__fill_2 abstract view
.subckt gf180mcu_fd_sc_mcu7t5v0__fill_2 VDD VSS
.ends

* Black-box entry subcircuit for gf180mcu_fd_sc_mcu7t5v0__antenna abstract view
.subckt gf180mcu_fd_sc_mcu7t5v0__antenna I VDD VSS
.ends

* Black-box entry subcircuit for gf180mcu_fd_sc_mcu7t5v0__xnor2_1 abstract view
.subckt gf180mcu_fd_sc_mcu7t5v0__xnor2_1 A1 A2 ZN VDD VSS
.ends

* Black-box entry subcircuit for gf180mcu_fd_sc_mcu7t5v0__clkbuf_1 abstract view
.subckt gf180mcu_fd_sc_mcu7t5v0__clkbuf_1 I Z VDD VSS
.ends

* Black-box entry subcircuit for gf180mcu_fd_sc_mcu7t5v0__mux2_2 abstract view
.subckt gf180mcu_fd_sc_mcu7t5v0__mux2_2 I0 I1 S Z VDD VSS
.ends

* Black-box entry subcircuit for gf180mcu_fd_sc_mcu7t5v0__fill_1 abstract view
.subckt gf180mcu_fd_sc_mcu7t5v0__fill_1 VDD VSS
.ends

* Black-box entry subcircuit for gf180mcu_fd_sc_mcu7t5v0__fillcap_64 abstract view
.subckt gf180mcu_fd_sc_mcu7t5v0__fillcap_64 VDD VSS
.ends

* Black-box entry subcircuit for gf180mcu_fd_sc_mcu7t5v0__fillcap_8 abstract view
.subckt gf180mcu_fd_sc_mcu7t5v0__fillcap_8 VDD VSS
.ends

* Black-box entry subcircuit for gf180mcu_fd_sc_mcu7t5v0__fillcap_4 abstract view
.subckt gf180mcu_fd_sc_mcu7t5v0__fillcap_4 VDD VSS
.ends

* Black-box entry subcircuit for gf180mcu_fd_sc_mcu7t5v0__aoi22_1 abstract view
.subckt gf180mcu_fd_sc_mcu7t5v0__aoi22_1 A1 A2 B1 B2 ZN VDD VSS
.ends

* Black-box entry subcircuit for gf180mcu_fd_sc_mcu7t5v0__buf_2 abstract view
.subckt gf180mcu_fd_sc_mcu7t5v0__buf_2 I Z VDD VSS
.ends

* Black-box entry subcircuit for gf180mcu_fd_sc_mcu7t5v0__clkbuf_16 abstract view
.subckt gf180mcu_fd_sc_mcu7t5v0__clkbuf_16 I Z VDD VSS
.ends

* Black-box entry subcircuit for gf180mcu_fd_sc_mcu7t5v0__aoi222_1 abstract view
.subckt gf180mcu_fd_sc_mcu7t5v0__aoi222_1 A1 A2 B1 B2 C1 C2 ZN VDD VSS
.ends

* Black-box entry subcircuit for gf180mcu_fd_sc_mcu7t5v0__nand4_1 abstract view
.subckt gf180mcu_fd_sc_mcu7t5v0__nand4_1 A1 A2 A3 A4 ZN VDD VSS
.ends

* Black-box entry subcircuit for gf180mcu_fd_sc_mcu7t5v0__nor3_2 abstract view
.subckt gf180mcu_fd_sc_mcu7t5v0__nor3_2 A1 A2 A3 ZN VDD VSS
.ends

* Black-box entry subcircuit for gf180mcu_fd_sc_mcu7t5v0__filltie abstract view
.subckt gf180mcu_fd_sc_mcu7t5v0__filltie VDD VSS
.ends

* Black-box entry subcircuit for gf180mcu_fd_sc_mcu7t5v0__dffq_1 abstract view
.subckt gf180mcu_fd_sc_mcu7t5v0__dffq_1 D CLK Q VDD VSS
.ends

* Black-box entry subcircuit for gf180mcu_fd_sc_mcu7t5v0__fillcap_16 abstract view
.subckt gf180mcu_fd_sc_mcu7t5v0__fillcap_16 VDD VSS
.ends

* Black-box entry subcircuit for gf180mcu_fd_sc_mcu7t5v0__nand2_2 abstract view
.subckt gf180mcu_fd_sc_mcu7t5v0__nand2_2 A1 A2 ZN VDD VSS
.ends

* Black-box entry subcircuit for gf180mcu_fd_sc_mcu7t5v0__fillcap_32 abstract view
.subckt gf180mcu_fd_sc_mcu7t5v0__fillcap_32 VDD VSS
.ends

* Black-box entry subcircuit for gf180mcu_fd_sc_mcu7t5v0__or2_1 abstract view
.subckt gf180mcu_fd_sc_mcu7t5v0__or2_1 A1 A2 Z VDD VSS
.ends

* Black-box entry subcircuit for gf180mcu_fd_sc_mcu7t5v0__buf_1 abstract view
.subckt gf180mcu_fd_sc_mcu7t5v0__buf_1 I Z VDD VSS
.ends

* Black-box entry subcircuit for gf180mcu_fd_sc_mcu7t5v0__aoi211_4 abstract view
.subckt gf180mcu_fd_sc_mcu7t5v0__aoi211_4 A1 A2 B C ZN VDD VSS
.ends

* Black-box entry subcircuit for gf180mcu_fd_sc_mcu7t5v0__nand2_1 abstract view
.subckt gf180mcu_fd_sc_mcu7t5v0__nand2_1 A1 A2 ZN VDD VSS
.ends

* Black-box entry subcircuit for gf180mcu_fd_sc_mcu7t5v0__nor4_1 abstract view
.subckt gf180mcu_fd_sc_mcu7t5v0__nor4_1 A1 A2 A3 A4 ZN VDD VSS
.ends

* Black-box entry subcircuit for gf180mcu_fd_sc_mcu7t5v0__nor2_1 abstract view
.subckt gf180mcu_fd_sc_mcu7t5v0__nor2_1 A1 A2 ZN VDD VSS
.ends

* Black-box entry subcircuit for gf180mcu_fd_sc_mcu7t5v0__and2_1 abstract view
.subckt gf180mcu_fd_sc_mcu7t5v0__and2_1 A1 A2 Z VDD VSS
.ends

* Black-box entry subcircuit for gf180mcu_fd_sc_mcu7t5v0__aoi221_2 abstract view
.subckt gf180mcu_fd_sc_mcu7t5v0__aoi221_2 A1 A2 B1 B2 C ZN VDD VSS
.ends

* Black-box entry subcircuit for gf180mcu_fd_sc_mcu7t5v0__clkinv_1 abstract view
.subckt gf180mcu_fd_sc_mcu7t5v0__clkinv_1 I ZN VDD VSS
.ends

* Black-box entry subcircuit for gf180mcu_fd_sc_mcu7t5v0__aoi211_2 abstract view
.subckt gf180mcu_fd_sc_mcu7t5v0__aoi211_2 A1 A2 B C ZN VDD VSS
.ends

* Black-box entry subcircuit for gf180mcu_fd_sc_mcu7t5v0__endcap abstract view
.subckt gf180mcu_fd_sc_mcu7t5v0__endcap VDD VSS
.ends

* Black-box entry subcircuit for gf180mcu_fd_sc_mcu7t5v0__oai22_1 abstract view
.subckt gf180mcu_fd_sc_mcu7t5v0__oai22_1 A1 A2 B1 B2 ZN VDD VSS
.ends

* Black-box entry subcircuit for gf180mcu_fd_sc_mcu7t5v0__nand3_2 abstract view
.subckt gf180mcu_fd_sc_mcu7t5v0__nand3_2 A1 A2 A3 ZN VDD VSS
.ends

* Black-box entry subcircuit for gf180mcu_fd_sc_mcu7t5v0__clkbuf_8 abstract view
.subckt gf180mcu_fd_sc_mcu7t5v0__clkbuf_8 I Z VDD VSS
.ends

* Black-box entry subcircuit for gf180mcu_fd_sc_mcu7t5v0__nor4_4 abstract view
.subckt gf180mcu_fd_sc_mcu7t5v0__nor4_4 A1 A2 A3 A4 ZN VDD VSS
.ends

* Black-box entry subcircuit for gf180mcu_fd_sc_mcu7t5v0__buf_3 abstract view
.subckt gf180mcu_fd_sc_mcu7t5v0__buf_3 I Z VDD VSS
.ends

* Black-box entry subcircuit for gf180mcu_fd_sc_mcu7t5v0__oai31_1 abstract view
.subckt gf180mcu_fd_sc_mcu7t5v0__oai31_1 A1 A2 A3 B ZN VDD VSS
.ends

* Black-box entry subcircuit for gf180mcu_fd_sc_mcu7t5v0__and4_1 abstract view
.subckt gf180mcu_fd_sc_mcu7t5v0__and4_1 A1 A2 A3 A4 Z VDD VSS
.ends

* Black-box entry subcircuit for gf180mcu_fd_sc_mcu7t5v0__aoi21_1 abstract view
.subckt gf180mcu_fd_sc_mcu7t5v0__aoi21_1 A1 A2 B ZN VDD VSS
.ends

* Black-box entry subcircuit for gf180mcu_fd_sc_mcu7t5v0__nand3_1 abstract view
.subckt gf180mcu_fd_sc_mcu7t5v0__nand3_1 A1 A2 A3 ZN VDD VSS
.ends

* Black-box entry subcircuit for gf180mcu_fd_sc_mcu7t5v0__clkbuf_2 abstract view
.subckt gf180mcu_fd_sc_mcu7t5v0__clkbuf_2 I Z VDD VSS
.ends

* Black-box entry subcircuit for gf180mcu_fd_sc_mcu7t5v0__aoi221_1 abstract view
.subckt gf180mcu_fd_sc_mcu7t5v0__aoi221_1 A1 A2 B1 B2 C ZN VDD VSS
.ends

* Black-box entry subcircuit for gf180mcu_fd_sc_mcu7t5v0__clkbuf_4 abstract view
.subckt gf180mcu_fd_sc_mcu7t5v0__clkbuf_4 I Z VDD VSS
.ends

* Black-box entry subcircuit for gf180mcu_fd_sc_mcu7t5v0__nor2_2 abstract view
.subckt gf180mcu_fd_sc_mcu7t5v0__nor2_2 A1 A2 ZN VDD VSS
.ends

* Black-box entry subcircuit for gf180mcu_fd_sc_mcu7t5v0__nand3_4 abstract view
.subckt gf180mcu_fd_sc_mcu7t5v0__nand3_4 A1 A2 A3 ZN VDD VSS
.ends

* Black-box entry subcircuit for gf180mcu_fd_sc_mcu7t5v0__aoi211_1 abstract view
.subckt gf180mcu_fd_sc_mcu7t5v0__aoi211_1 A1 A2 B C ZN VDD VSS
.ends

* Black-box entry subcircuit for gf180mcu_fd_sc_mcu7t5v0__clkinv_2 abstract view
.subckt gf180mcu_fd_sc_mcu7t5v0__clkinv_2 I ZN VDD VSS
.ends

* Black-box entry subcircuit for gf180mcu_fd_sc_mcu7t5v0__xor2_1 abstract view
.subckt gf180mcu_fd_sc_mcu7t5v0__xor2_1 A1 A2 Z VDD VSS
.ends

* Black-box entry subcircuit for gf180mcu_fd_sc_mcu7t5v0__and2_2 abstract view
.subckt gf180mcu_fd_sc_mcu7t5v0__and2_2 A1 A2 Z VDD VSS
.ends

* Black-box entry subcircuit for gf180mcu_fd_sc_mcu7t5v0__nor4_2 abstract view
.subckt gf180mcu_fd_sc_mcu7t5v0__nor4_2 A1 A2 A3 A4 ZN VDD VSS
.ends

* Black-box entry subcircuit for gf180mcu_fd_sc_mcu7t5v0__inv_1 abstract view
.subckt gf180mcu_fd_sc_mcu7t5v0__inv_1 I ZN VDD VSS
.ends

* Black-box entry subcircuit for gf180mcu_fd_sc_mcu7t5v0__nor3_4 abstract view
.subckt gf180mcu_fd_sc_mcu7t5v0__nor3_4 A1 A2 A3 ZN VDD VSS
.ends

* Black-box entry subcircuit for gf180mcu_fd_sc_mcu7t5v0__oai21_2 abstract view
.subckt gf180mcu_fd_sc_mcu7t5v0__oai21_2 A1 A2 B ZN VDD VSS
.ends

* Black-box entry subcircuit for gf180mcu_fd_sc_mcu7t5v0__dffq_2 abstract view
.subckt gf180mcu_fd_sc_mcu7t5v0__dffq_2 D CLK Q VDD VSS
.ends

* Black-box entry subcircuit for gf180mcu_fd_sc_mcu7t5v0__nand4_4 abstract view
.subckt gf180mcu_fd_sc_mcu7t5v0__nand4_4 A1 A2 A3 A4 ZN VDD VSS
.ends

* Black-box entry subcircuit for gf180mcu_fd_sc_mcu7t5v0__nor3_1 abstract view
.subckt gf180mcu_fd_sc_mcu7t5v0__nor3_1 A1 A2 A3 ZN VDD VSS
.ends

* Black-box entry subcircuit for gf180mcu_fd_sc_mcu7t5v0__and3_2 abstract view
.subckt gf180mcu_fd_sc_mcu7t5v0__and3_2 A1 A2 A3 Z VDD VSS
.ends

* Black-box entry subcircuit for gf180mcu_fd_sc_mcu7t5v0__aoi222_2 abstract view
.subckt gf180mcu_fd_sc_mcu7t5v0__aoi222_2 A1 A2 B1 B2 C1 C2 ZN VDD VSS
.ends

* Black-box entry subcircuit for gf180mcu_fd_sc_mcu7t5v0__oai21_1 abstract view
.subckt gf180mcu_fd_sc_mcu7t5v0__oai21_1 A1 A2 B ZN VDD VSS
.ends

* Black-box entry subcircuit for gf180mcu_fd_sc_mcu7t5v0__and3_1 abstract view
.subckt gf180mcu_fd_sc_mcu7t5v0__and3_1 A1 A2 A3 Z VDD VSS
.ends

* Black-box entry subcircuit for gf180mcu_fd_sc_mcu7t5v0__nor2_4 abstract view
.subckt gf180mcu_fd_sc_mcu7t5v0__nor2_4 A1 A2 ZN VDD VSS
.ends

* Black-box entry subcircuit for gf180mcu_fd_sc_mcu7t5v0__dlyd_4 abstract view
.subckt gf180mcu_fd_sc_mcu7t5v0__dlyd_4 I Z VDD VSS
.ends

* Black-box entry subcircuit for gf180mcu_fd_sc_mcu7t5v0__oai31_2 abstract view
.subckt gf180mcu_fd_sc_mcu7t5v0__oai31_2 A1 A2 A3 B ZN VDD VSS
.ends

* Black-box entry subcircuit for gf180mcu_fd_sc_mcu7t5v0__xor2_2 abstract view
.subckt gf180mcu_fd_sc_mcu7t5v0__xor2_2 A1 A2 Z VDD VSS
.ends

.subckt driver_core clock clock_a col_select_a[0] col_select_a[1] col_select_a[2]
+ col_select_a[3] col_select_a[4] col_select_a[5] data_in_a[0] data_in_a[10] data_in_a[11]
+ data_in_a[12] data_in_a[13] data_in_a[14] data_in_a[15] data_in_a[1] data_in_a[2]
+ data_in_a[3] data_in_a[4] data_in_a[5] data_in_a[6] data_in_a[7] data_in_a[8] data_in_a[9]
+ driver_io[0] driver_io[1] inverter_select_a mem_address_a[0] mem_address_a[1] mem_address_a[2]
+ mem_address_a[3] mem_address_a[4] mem_address_a[5] mem_address_a[6] mem_address_a[7]
+ mem_address_a[8] mem_address_a[9] mem_write_n_a output_active_a row_col_select_a
+ row_select_a[0] row_select_a[1] row_select_a[2] row_select_a[3] row_select_a[4]
+ row_select_a[5] vccd1 vssd1
XFILLER_39_211 vccd1 vssd1 gf180mcu_fd_sc_mcu7t5v0__fill_2
XFILLER_132_1333 vccd1 vssd1 gf180mcu_fd_sc_mcu7t5v0__fill_2
XANTENNA__07383__I _02611_ vccd1 vssd1 gf180mcu_fd_sc_mcu7t5v0__antenna
XFILLER_67_531 vccd1 vssd1 gf180mcu_fd_sc_mcu7t5v0__fill_2
XANTENNA__11705__I1 u2.mem\[181\]\[2\] vccd1 vssd1 gf180mcu_fd_sc_mcu7t5v0__antenna
XFILLER_132_1355 vccd1 vssd1 gf180mcu_fd_sc_mcu7t5v0__fill_2
X_06883_ _02338_ _02345_ _02362_ vccd1 vssd1 gf180mcu_fd_sc_mcu7t5v0__xnor2_1
X_09671_ _04550_ _00582_ vccd1 vssd1 gf180mcu_fd_sc_mcu7t5v0__clkbuf_1
XANTENNA__06337__A2 _01834_ vccd1 vssd1 gf180mcu_fd_sc_mcu7t5v0__antenna
XANTENNA__12595__CLK clknet_leaf_105_clock vccd1 vssd1 gf180mcu_fd_sc_mcu7t5v0__antenna
XANTENNA__07534__A1 _03002_ vccd1 vssd1 gf180mcu_fd_sc_mcu7t5v0__antenna
XFILLER_39_266 vccd1 vssd1 gf180mcu_fd_sc_mcu7t5v0__fill_2
XFILLER_95_895 vccd1 vssd1 gf180mcu_fd_sc_mcu7t5v0__fill_2
XFILLER_55_726 vccd1 vssd1 gf180mcu_fd_sc_mcu7t5v0__fill_2
X_08622_ _03808_ u2.mem\[12\]\[4\] _03885_ _03886_ vccd1 vssd1 gf180mcu_fd_sc_mcu7t5v0__mux2_2
XFILLER_27_428 vccd1 vssd1 gf180mcu_fd_sc_mcu7t5v0__fill_1
XANTENNA__06888__A3 _02344_ vccd1 vssd1 gf180mcu_fd_sc_mcu7t5v0__antenna
XFILLER_82_534 vccd1 vssd1 gf180mcu_fd_sc_mcu7t5v0__fillcap_64
XFILLER_54_247 vccd1 vssd1 gf180mcu_fd_sc_mcu7t5v0__fill_1
X_08553_ _03845_ _00169_ vccd1 vssd1 gf180mcu_fd_sc_mcu7t5v0__clkbuf_1
XFILLER_39_1101 vccd1 vssd1 gf180mcu_fd_sc_mcu7t5v0__fill_2
XFILLER_78_1161 vccd1 vssd1 gf180mcu_fd_sc_mcu7t5v0__fillcap_8
XFILLER_165_1131 vccd1 vssd1 gf180mcu_fd_sc_mcu7t5v0__fillcap_4
XFILLER_36_995 vccd1 vssd1 gf180mcu_fd_sc_mcu7t5v0__fill_2
XFILLER_39_1134 vccd1 vssd1 gf180mcu_fd_sc_mcu7t5v0__fill_2
X_07504_ u2.mem\[1\]\[7\] _02795_ _02796_ u2.mem\[7\]\[7\] _02976_ vccd1 vssd1 gf180mcu_fd_sc_mcu7t5v0__aoi22_1
XANTENNA__07298__B1 _02688_ vccd1 vssd1 gf180mcu_fd_sc_mcu7t5v0__antenna
X_08484_ _03799_ _03800_ vccd1 vssd1 gf180mcu_fd_sc_mcu7t5v0__buf_2
XFILLER_35_483 vccd1 vssd1 gf180mcu_fd_sc_mcu7t5v0__fill_2
X_07435_ u2.mem\[29\]\[5\] _02833_ _02834_ u2.mem\[11\]\[5\] _02909_ vccd1 vssd1 gf180mcu_fd_sc_mcu7t5v0__aoi22_1
XFILLER_17_1410 vccd1 vssd1 gf180mcu_fd_sc_mcu7t5v0__fill_2
XANTENNA__10841__A1 _03983_ vccd1 vssd1 gf180mcu_fd_sc_mcu7t5v0__antenna
XFILLER_50_453 vccd1 vssd1 gf180mcu_fd_sc_mcu7t5v0__fillcap_8
XFILLER_149_820 vccd1 vssd1 gf180mcu_fd_sc_mcu7t5v0__fillcap_8
XFILLER_50_475 vccd1 vssd1 gf180mcu_fd_sc_mcu7t5v0__fill_2
XFILLER_52_1323 vccd1 vssd1 gf180mcu_fd_sc_mcu7t5v0__fillcap_4
XFILLER_17_1454 vccd1 vssd1 gf180mcu_fd_sc_mcu7t5v0__fill_2
X_07366_ u2.mem\[28\]\[4\] _02839_ _02840_ u2.mem\[31\]\[4\] _02841_ vccd1 vssd1 gf180mcu_fd_sc_mcu7t5v0__aoi22_1
XFILLER_22_188 vccd1 vssd1 gf180mcu_fd_sc_mcu7t5v0__fill_1
XANTENNA__08637__I1 u2.mem\[12\]\[11\] vccd1 vssd1 gf180mcu_fd_sc_mcu7t5v0__antenna
XFILLER_10_339 vccd1 vssd1 gf180mcu_fd_sc_mcu7t5v0__fill_2
Xclkbuf_leaf_350_clock clknet_5_4_0_clock clknet_leaf_350_clock vccd1 vssd1 gf180mcu_fd_sc_mcu7t5v0__clkbuf_16
XFILLER_143_1484 vccd1 vssd1 gf180mcu_fd_sc_mcu7t5v0__fillcap_4
XFILLER_13_1318 vccd1 vssd1 gf180mcu_fd_sc_mcu7t5v0__fill_1
X_09105_ _04199_ _00367_ vccd1 vssd1 gf180mcu_fd_sc_mcu7t5v0__clkbuf_1
X_06317_ u2.mem\[158\]\[3\] _01728_ _01729_ u2.mem\[151\]\[3\] _01731_ u2.mem\[193\]\[3\]
+ _01821_ vccd1 vssd1 gf180mcu_fd_sc_mcu7t5v0__aoi222_1
XFILLER_52_1378 vccd1 vssd1 gf180mcu_fd_sc_mcu7t5v0__fill_2
XFILLER_104_1457 vccd1 vssd1 gf180mcu_fd_sc_mcu7t5v0__fill_2
X_07297_ _02769_ _02770_ _02771_ _02772_ _02773_ vccd1 vssd1 gf180mcu_fd_sc_mcu7t5v0__nand4_1
XFILLER_163_322 vccd1 vssd1 gf180mcu_fd_sc_mcu7t5v0__fill_2
XANTENNA__07558__I _02470_ vccd1 vssd1 gf180mcu_fd_sc_mcu7t5v0__antenna
XFILLER_87_1419 vccd1 vssd1 gf180mcu_fd_sc_mcu7t5v0__fill_1
X_09036_ _04152_ _00345_ vccd1 vssd1 gf180mcu_fd_sc_mcu7t5v0__clkbuf_1
XFILLER_136_558 vccd1 vssd1 gf180mcu_fd_sc_mcu7t5v0__fillcap_8
XANTENNA__07470__B1 _02888_ vccd1 vssd1 gf180mcu_fd_sc_mcu7t5v0__antenna
X_06248_ _01597_ _01754_ vccd1 vssd1 gf180mcu_fd_sc_mcu7t5v0__clkbuf_1
XANTENNA__06462__I _01914_ vccd1 vssd1 gf180mcu_fd_sc_mcu7t5v0__antenna
XFILLER_117_750 vccd1 vssd1 gf180mcu_fd_sc_mcu7t5v0__fill_1
XFILLER_164_889 vccd1 vssd1 gf180mcu_fd_sc_mcu7t5v0__fill_1
XFILLER_163_366 vccd1 vssd1 gf180mcu_fd_sc_mcu7t5v0__fill_2
XFILLER_105_912 vccd1 vssd1 gf180mcu_fd_sc_mcu7t5v0__fill_2
XFILLER_137_1200 vccd1 vssd1 gf180mcu_fd_sc_mcu7t5v0__fillcap_4
XFILLER_117_783 vccd1 vssd1 gf180mcu_fd_sc_mcu7t5v0__fill_1
XFILLER_117_794 vccd1 vssd1 gf180mcu_fd_sc_mcu7t5v0__fill_2
XFILLER_105_934 vccd1 vssd1 gf180mcu_fd_sc_mcu7t5v0__fill_1
X_06179_ _01563_ _01677_ _01587_ _01686_ vccd1 vssd1 gf180mcu_fd_sc_mcu7t5v0__nor3_2
XFILLER_172_1102 vccd1 vssd1 gf180mcu_fd_sc_mcu7t5v0__fillcap_64
XFILLER_137_1222 vccd1 vssd1 gf180mcu_fd_sc_mcu7t5v0__fillcap_8
XFILLER_11_1097 vccd1 vssd1 gf180mcu_fd_sc_mcu7t5v0__fill_2
XFILLER_116_282 vccd1 vssd1 gf180mcu_fd_sc_mcu7t5v0__fill_2
XANTENNA__06025__A1 _01516_ vccd1 vssd1 gf180mcu_fd_sc_mcu7t5v0__antenna
XFILLER_104_444 vccd1 vssd1 gf180mcu_fd_sc_mcu7t5v0__fill_1
XFILLER_85_1176 vccd1 vssd1 gf180mcu_fd_sc_mcu7t5v0__fill_2
XFILLER_120_904 vccd1 vssd1 gf180mcu_fd_sc_mcu7t5v0__fill_1
XFILLER_89_144 vccd1 vssd1 gf180mcu_fd_sc_mcu7t5v0__fill_1
XFILLER_78_818 vccd1 vssd1 gf180mcu_fd_sc_mcu7t5v0__fill_1
XANTENNA__13370__CLK clknet_leaf_357_clock vccd1 vssd1 gf180mcu_fd_sc_mcu7t5v0__antenna
XFILLER_104_466 vccd1 vssd1 gf180mcu_fd_sc_mcu7t5v0__fill_2
XANTENNA__06576__A2 _02053_ vccd1 vssd1 gf180mcu_fd_sc_mcu7t5v0__antenna
XFILLER_120_926 vccd1 vssd1 gf180mcu_fd_sc_mcu7t5v0__fill_2
XFILLER_104_477 vccd1 vssd1 gf180mcu_fd_sc_mcu7t5v0__fillcap_8
XFILLER_104_488 vccd1 vssd1 gf180mcu_fd_sc_mcu7t5v0__fill_2
XANTENNA__10712__I _05195_ vccd1 vssd1 gf180mcu_fd_sc_mcu7t5v0__antenna
X_09938_ _04689_ u2.mem\[42\]\[3\] _04719_ _04723_ vccd1 vssd1 gf180mcu_fd_sc_mcu7t5v0__mux2_2
XANTENNA__07507__B _02978_ vccd1 vssd1 gf180mcu_fd_sc_mcu7t5v0__antenna
XFILLER_89_188 vccd1 vssd1 gf180mcu_fd_sc_mcu7t5v0__fill_2
XFILLER_154_1580 vccd1 vssd1 gf180mcu_fd_sc_mcu7t5v0__fill_1
XFILLER_133_10 vccd1 vssd1 gf180mcu_fd_sc_mcu7t5v0__fill_1
XFILLER_58_531 vccd1 vssd1 gf180mcu_fd_sc_mcu7t5v0__fill_1
XFILLER_19_907 vccd1 vssd1 gf180mcu_fd_sc_mcu7t5v0__fillcap_4
XFILLER_58_542 vccd1 vssd1 gf180mcu_fd_sc_mcu7t5v0__fillcap_4
XFILLER_115_1564 vccd1 vssd1 gf180mcu_fd_sc_mcu7t5v0__fill_1
XFILLER_63_1496 vccd1 vssd1 gf180mcu_fd_sc_mcu7t5v0__fill_2
X_09869_ _04605_ u2.mem\[40\]\[12\] _04676_ _04677_ vccd1 vssd1 gf180mcu_fd_sc_mcu7t5v0__mux2_2
XFILLER_115_1575 vccd1 vssd1 gf180mcu_fd_sc_mcu7t5v0__fillcap_4
XFILLER_111_1406 vccd1 vssd1 gf180mcu_fd_sc_mcu7t5v0__fill_1
XFILLER_100_650 vccd1 vssd1 gf180mcu_fd_sc_mcu7t5v0__fill_2
XTAP_3202 vccd1 vssd1 gf180mcu_fd_sc_mcu7t5v0__filltie
XFILLER_111_1417 vccd1 vssd1 gf180mcu_fd_sc_mcu7t5v0__fill_2
XFILLER_19_929 vccd1 vssd1 gf180mcu_fd_sc_mcu7t5v0__fillcap_4
XANTENNA__06328__A2 _01712_ vccd1 vssd1 gf180mcu_fd_sc_mcu7t5v0__antenna
XANTENNA__07525__B2 u2.mem\[10\]\[7\] vccd1 vssd1 gf180mcu_fd_sc_mcu7t5v0__antenna
XTAP_3213 vccd1 vssd1 gf180mcu_fd_sc_mcu7t5v0__filltie
XFILLER_18_417 vccd1 vssd1 gf180mcu_fd_sc_mcu7t5v0__fill_1
XFILLER_133_76 vccd1 vssd1 gf180mcu_fd_sc_mcu7t5v0__fill_2
XTAP_3224 vccd1 vssd1 gf180mcu_fd_sc_mcu7t5v0__filltie
XFILLER_100_683 vccd1 vssd1 gf180mcu_fd_sc_mcu7t5v0__fill_1
X_11900_ _05927_ _05942_ vccd1 vssd1 gf180mcu_fd_sc_mcu7t5v0__buf_2
XFILLER_133_87 vccd1 vssd1 gf180mcu_fd_sc_mcu7t5v0__fill_2
XTAP_3235 vccd1 vssd1 gf180mcu_fd_sc_mcu7t5v0__filltie
XFILLER_133_98 vccd1 vssd1 gf180mcu_fd_sc_mcu7t5v0__fill_2
X_12880_ _00759_ clknet_leaf_230_clock u2.mem\[47\]\[5\] vccd1 vssd1 gf180mcu_fd_sc_mcu7t5v0__dffq_1
XTAP_2501 vccd1 vssd1 gf180mcu_fd_sc_mcu7t5v0__filltie
XTAP_3246 vccd1 vssd1 gf180mcu_fd_sc_mcu7t5v0__filltie
XTAP_3257 vccd1 vssd1 gf180mcu_fd_sc_mcu7t5v0__filltie
XTAP_2512 vccd1 vssd1 gf180mcu_fd_sc_mcu7t5v0__filltie
XFILLER_93_58 vccd1 vssd1 gf180mcu_fd_sc_mcu7t5v0__fill_2
XTAP_3268 vccd1 vssd1 gf180mcu_fd_sc_mcu7t5v0__filltie
XTAP_2523 vccd1 vssd1 gf180mcu_fd_sc_mcu7t5v0__filltie
XTAP_3279 vccd1 vssd1 gf180mcu_fd_sc_mcu7t5v0__filltie
XTAP_2534 vccd1 vssd1 gf180mcu_fd_sc_mcu7t5v0__filltie
Xclkbuf_leaf_303_clock clknet_5_16_0_clock clknet_leaf_303_clock vccd1 vssd1 gf180mcu_fd_sc_mcu7t5v0__clkbuf_16
X_11831_ _05870_ u2.mem\[189\]\[2\] _05896_ _05899_ vccd1 vssd1 gf180mcu_fd_sc_mcu7t5v0__mux2_2
XFILLER_73_567 vccd1 vssd1 gf180mcu_fd_sc_mcu7t5v0__fill_1
XANTENNA__07540__A4 _03011_ vccd1 vssd1 gf180mcu_fd_sc_mcu7t5v0__antenna
XTAP_2545 vccd1 vssd1 gf180mcu_fd_sc_mcu7t5v0__filltie
XFILLER_26_41 vccd1 vssd1 gf180mcu_fd_sc_mcu7t5v0__fill_1
XFILLER_57_1201 vccd1 vssd1 gf180mcu_fd_sc_mcu7t5v0__fill_2
XTAP_1800 vccd1 vssd1 gf180mcu_fd_sc_mcu7t5v0__filltie
XFILLER_165_2 vccd1 vssd1 gf180mcu_fd_sc_mcu7t5v0__fillcap_64
XTAP_2556 vccd1 vssd1 gf180mcu_fd_sc_mcu7t5v0__filltie
XFILLER_2_1276 vccd1 vssd1 gf180mcu_fd_sc_mcu7t5v0__fill_1
XFILLER_61_729 vccd1 vssd1 gf180mcu_fd_sc_mcu7t5v0__fill_2
XTAP_1811 vccd1 vssd1 gf180mcu_fd_sc_mcu7t5v0__filltie
XFILLER_57_1223 vccd1 vssd1 gf180mcu_fd_sc_mcu7t5v0__fill_2
XTAP_1822 vccd1 vssd1 gf180mcu_fd_sc_mcu7t5v0__filltie
XTAP_2567 vccd1 vssd1 gf180mcu_fd_sc_mcu7t5v0__filltie
XFILLER_96_1283 vccd1 vssd1 gf180mcu_fd_sc_mcu7t5v0__fillcap_16
XFILLER_42_921 vccd1 vssd1 gf180mcu_fd_sc_mcu7t5v0__fill_1
XANTENNA__07289__B1 _02570_ vccd1 vssd1 gf180mcu_fd_sc_mcu7t5v0__antenna
XTAP_2578 vccd1 vssd1 gf180mcu_fd_sc_mcu7t5v0__filltie
XFILLER_42_932 vccd1 vssd1 gf180mcu_fd_sc_mcu7t5v0__fill_2
XTAP_1833 vccd1 vssd1 gf180mcu_fd_sc_mcu7t5v0__filltie
XTAP_2589 vccd1 vssd1 gf180mcu_fd_sc_mcu7t5v0__filltie
X_11762_ _04248_ _05847_ _05856_ vccd1 vssd1 gf180mcu_fd_sc_mcu7t5v0__nand2_2
XFILLER_60_239 vccd1 vssd1 gf180mcu_fd_sc_mcu7t5v0__fill_2
XTAP_1844 vccd1 vssd1 gf180mcu_fd_sc_mcu7t5v0__filltie
XFILLER_14_645 vccd1 vssd1 gf180mcu_fd_sc_mcu7t5v0__fillcap_4
XTAP_1855 vccd1 vssd1 gf180mcu_fd_sc_mcu7t5v0__filltie
XANTENNA__09013__I data_in_trans\[3\].data_sync vccd1 vssd1 gf180mcu_fd_sc_mcu7t5v0__antenna
XTAP_1866 vccd1 vssd1 gf180mcu_fd_sc_mcu7t5v0__filltie
XFILLER_41_442 vccd1 vssd1 gf180mcu_fd_sc_mcu7t5v0__fill_2
X_13501_ _01380_ clknet_leaf_330_clock u2.mem\[187\]\[0\] vccd1 vssd1 gf180mcu_fd_sc_mcu7t5v0__dffq_1
XFILLER_53_1109 vccd1 vssd1 gf180mcu_fd_sc_mcu7t5v0__fillcap_4
XFILLER_158_105 vccd1 vssd1 gf180mcu_fd_sc_mcu7t5v0__fill_1
XFILLER_13_144 vccd1 vssd1 gf180mcu_fd_sc_mcu7t5v0__fill_2
X_10713_ _05194_ u2.mem\[61\]\[0\] _05196_ _05197_ vccd1 vssd1 gf180mcu_fd_sc_mcu7t5v0__mux2_2
XTAP_1877 vccd1 vssd1 gf180mcu_fd_sc_mcu7t5v0__filltie
XANTENNA__12318__CLK clknet_leaf_199_clock vccd1 vssd1 gf180mcu_fd_sc_mcu7t5v0__antenna
XANTENNA__11880__I0 u2.mem\[192\]\[1\] vccd1 vssd1 gf180mcu_fd_sc_mcu7t5v0__antenna
XTAP_1888 vccd1 vssd1 gf180mcu_fd_sc_mcu7t5v0__filltie
X_11693_ _05794_ u2.mem\[180\]\[3\] _05810_ _05814_ vccd1 vssd1 gf180mcu_fd_sc_mcu7t5v0__mux2_2
XTAP_1899 vccd1 vssd1 gf180mcu_fd_sc_mcu7t5v0__filltie
XFILLER_144_1259 vccd1 vssd1 gf180mcu_fd_sc_mcu7t5v0__fill_1
X_13432_ _01311_ clknet_leaf_336_clock u2.mem\[175\]\[3\] vccd1 vssd1 gf180mcu_fd_sc_mcu7t5v0__dffq_1
Xclkbuf_leaf_318_clock clknet_5_18_0_clock clknet_leaf_318_clock vccd1 vssd1 gf180mcu_fd_sc_mcu7t5v0__clkbuf_16
XANTENNA__08852__I _03692_ vccd1 vssd1 gf180mcu_fd_sc_mcu7t5v0__antenna
XFILLER_13_199 vccd1 vssd1 gf180mcu_fd_sc_mcu7t5v0__fill_2
X_10644_ _05156_ _00949_ vccd1 vssd1 gf180mcu_fd_sc_mcu7t5v0__clkbuf_1
XFILLER_70_1445 vccd1 vssd1 gf180mcu_fd_sc_mcu7t5v0__fillcap_4
XANTENNA__08628__I1 u2.mem\[12\]\[7\] vccd1 vssd1 gf180mcu_fd_sc_mcu7t5v0__antenna
XFILLER_31_1407 vccd1 vssd1 gf180mcu_fd_sc_mcu7t5v0__fillcap_8
XANTENNA__11632__I0 _05756_ vccd1 vssd1 gf180mcu_fd_sc_mcu7t5v0__antenna
X_10575_ _05114_ _00922_ vccd1 vssd1 gf180mcu_fd_sc_mcu7t5v0__clkbuf_1
X_13363_ _01242_ clknet_leaf_358_clock u2.mem\[164\]\[0\] vccd1 vssd1 gf180mcu_fd_sc_mcu7t5v0__dffq_1
XFILLER_166_171 vccd1 vssd1 gf180mcu_fd_sc_mcu7t5v0__fill_2
XFILLER_6_822 vccd1 vssd1 gf180mcu_fd_sc_mcu7t5v0__fill_2
XFILLER_158_84 vccd1 vssd1 gf180mcu_fd_sc_mcu7t5v0__fill_2
X_12314_ _00193_ clknet_leaf_118_clock u2.mem\[11\]\[15\] vccd1 vssd1 gf180mcu_fd_sc_mcu7t5v0__dffq_1
XFILLER_155_867 vccd1 vssd1 gf180mcu_fd_sc_mcu7t5v0__fill_1
XFILLER_154_344 vccd1 vssd1 gf180mcu_fd_sc_mcu7t5v0__fillcap_8
XANTENNA__12468__CLK clknet_leaf_105_clock vccd1 vssd1 gf180mcu_fd_sc_mcu7t5v0__antenna
XFILLER_127_558 vccd1 vssd1 gf180mcu_fd_sc_mcu7t5v0__fill_2
X_13294_ _01173_ clknet_leaf_364_clock u2.mem\[152\]\[3\] vccd1 vssd1 gf180mcu_fd_sc_mcu7t5v0__dffq_1
XFILLER_170_815 vccd1 vssd1 gf180mcu_fd_sc_mcu7t5v0__fill_1
XFILLER_5_354 vccd1 vssd1 gf180mcu_fd_sc_mcu7t5v0__fill_1
XFILLER_142_517 vccd1 vssd1 gf180mcu_fd_sc_mcu7t5v0__fill_1
XFILLER_142_528 vccd1 vssd1 gf180mcu_fd_sc_mcu7t5v0__fillcap_4
XANTENNA__12026__D row_select_trans\[0\].A vccd1 vssd1 gf180mcu_fd_sc_mcu7t5v0__antenna
XANTENNA__11919__S _05950_ vccd1 vssd1 gf180mcu_fd_sc_mcu7t5v0__antenna
XANTENNA__08005__A2 _03464_ vccd1 vssd1 gf180mcu_fd_sc_mcu7t5v0__antenna
X_12245_ _00124_ clknet_leaf_73_clock u2.mem\[7\]\[10\] vccd1 vssd1 gf180mcu_fd_sc_mcu7t5v0__dffq_1
XFILLER_68_1352 vccd1 vssd1 gf180mcu_fd_sc_mcu7t5v0__fill_1
XFILLER_5_387 vccd1 vssd1 gf180mcu_fd_sc_mcu7t5v0__fill_2
XFILLER_107_293 vccd1 vssd1 gf180mcu_fd_sc_mcu7t5v0__fill_2
XANTENNA__07213__B1 _02614_ vccd1 vssd1 gf180mcu_fd_sc_mcu7t5v0__antenna
XANTENNA__11935__I1 u2.mem\[193\]\[9\] vccd1 vssd1 gf180mcu_fd_sc_mcu7t5v0__antenna
XFILLER_174_72 vccd1 vssd1 gf180mcu_fd_sc_mcu7t5v0__fillcap_32
X_12176_ _00055_ clknet_leaf_226_clock u2.mem\[3\]\[5\] vccd1 vssd1 gf180mcu_fd_sc_mcu7t5v0__dffq_1
XFILLER_9_1419 vccd1 vssd1 gf180mcu_fd_sc_mcu7t5v0__fill_1
XFILLER_116_1317 vccd1 vssd1 gf180mcu_fd_sc_mcu7t5v0__fill_1
XFILLER_96_615 vccd1 vssd1 gf180mcu_fd_sc_mcu7t5v0__fill_2
XFILLER_29_1369 vccd1 vssd1 gf180mcu_fd_sc_mcu7t5v0__fill_1
XFILLER_3_34 vccd1 vssd1 gf180mcu_fd_sc_mcu7t5v0__fillcap_16
XANTENNA__11718__I _03662_ vccd1 vssd1 gf180mcu_fd_sc_mcu7t5v0__antenna
XANTENNA__07764__B2 u2.mem\[25\]\[11\] vccd1 vssd1 gf180mcu_fd_sc_mcu7t5v0__antenna
XFILLER_3_56 vccd1 vssd1 gf180mcu_fd_sc_mcu7t5v0__fill_1
X_11127_ _05457_ _01131_ vccd1 vssd1 gf180mcu_fd_sc_mcu7t5v0__clkbuf_1
XANTENNA__08299__I _03674_ vccd1 vssd1 gf180mcu_fd_sc_mcu7t5v0__antenna
XFILLER_110_425 vccd1 vssd1 gf180mcu_fd_sc_mcu7t5v0__fillcap_8
XFILLER_3_67 vccd1 vssd1 gf180mcu_fd_sc_mcu7t5v0__fillcap_4
XFILLER_42_1525 vccd1 vssd1 gf180mcu_fd_sc_mcu7t5v0__fill_1
XFILLER_77_862 vccd1 vssd1 gf180mcu_fd_sc_mcu7t5v0__fill_2
X_11058_ _05384_ u2.mem\[141\]\[1\] _05413_ _05415_ vccd1 vssd1 gf180mcu_fd_sc_mcu7t5v0__mux2_2
XFILLER_67_70 vccd1 vssd1 gf180mcu_fd_sc_mcu7t5v0__fill_1
XFILLER_42_1558 vccd1 vssd1 gf180mcu_fd_sc_mcu7t5v0__fill_2
XANTENNA__08564__I0 _03826_ vccd1 vssd1 gf180mcu_fd_sc_mcu7t5v0__antenna
XANTENNA__07516__B2 u2.mem\[46\]\[7\] vccd1 vssd1 gf180mcu_fd_sc_mcu7t5v0__antenna
XFILLER_77_884 vccd1 vssd1 gf180mcu_fd_sc_mcu7t5v0__fill_2
X_10009_ _04685_ u2.mem\[44\]\[1\] _04762_ _04764_ vccd1 vssd1 gf180mcu_fd_sc_mcu7t5v0__mux2_2
XFILLER_76_372 vccd1 vssd1 gf180mcu_fd_sc_mcu7t5v0__fill_1
XFILLER_76_383 vccd1 vssd1 gf180mcu_fd_sc_mcu7t5v0__fillcap_4
XFILLER_64_534 vccd1 vssd1 gf180mcu_fd_sc_mcu7t5v0__fill_1
XFILLER_37_759 vccd1 vssd1 gf180mcu_fd_sc_mcu7t5v0__fillcap_16
XFILLER_91_331 vccd1 vssd1 gf180mcu_fd_sc_mcu7t5v0__fill_2
XFILLER_64_545 vccd1 vssd1 gf180mcu_fd_sc_mcu7t5v0__fill_1
XFILLER_36_269 vccd1 vssd1 gf180mcu_fd_sc_mcu7t5v0__fill_2
XFILLER_64_578 vccd1 vssd1 gf180mcu_fd_sc_mcu7t5v0__fill_1
XTAP_3780 vccd1 vssd1 gf180mcu_fd_sc_mcu7t5v0__filltie
XFILLER_91_364 vccd1 vssd1 gf180mcu_fd_sc_mcu7t5v0__fill_2
XFILLER_79_1470 vccd1 vssd1 gf180mcu_fd_sc_mcu7t5v0__fill_2
XFILLER_33_910 vccd1 vssd1 gf180mcu_fd_sc_mcu7t5v0__fill_2
XTAP_3791 vccd1 vssd1 gf180mcu_fd_sc_mcu7t5v0__filltie
XFILLER_33_932 vccd1 vssd1 gf180mcu_fd_sc_mcu7t5v0__fillcap_4
XFILLER_51_228 vccd1 vssd1 gf180mcu_fd_sc_mcu7t5v0__fill_2
XFILLER_75_1334 vccd1 vssd1 gf180mcu_fd_sc_mcu7t5v0__fillcap_8
XANTENNA__07819__A2 _03269_ vccd1 vssd1 gf180mcu_fd_sc_mcu7t5v0__antenna
XFILLER_32_420 vccd1 vssd1 gf180mcu_fd_sc_mcu7t5v0__fill_2
XFILLER_33_954 vccd1 vssd1 gf180mcu_fd_sc_mcu7t5v0__fillcap_4
XFILLER_162_1315 vccd1 vssd1 gf180mcu_fd_sc_mcu7t5v0__fill_1
XFILLER_33_965 vccd1 vssd1 gf180mcu_fd_sc_mcu7t5v0__fill_2
XFILLER_127_1446 vccd1 vssd1 gf180mcu_fd_sc_mcu7t5v0__fillcap_4
XFILLER_71_1209 vccd1 vssd1 gf180mcu_fd_sc_mcu7t5v0__fill_1
XFILLER_162_1337 vccd1 vssd1 gf180mcu_fd_sc_mcu7t5v0__fill_2
XANTENNA__11871__I0 _05915_ vccd1 vssd1 gf180mcu_fd_sc_mcu7t5v0__antenna
XFILLER_162_1348 vccd1 vssd1 gf180mcu_fd_sc_mcu7t5v0__fillcap_4
XFILLER_127_1468 vccd1 vssd1 gf180mcu_fd_sc_mcu7t5v0__fill_2
XANTENNA__06991__B _02468_ vccd1 vssd1 gf180mcu_fd_sc_mcu7t5v0__antenna
XANTENNA__13243__CLK clknet_leaf_291_clock vccd1 vssd1 gf180mcu_fd_sc_mcu7t5v0__antenna
X_07220_ u2.mem\[40\]\[2\] _02406_ _02415_ u2.mem\[30\]\[2\] _02697_ vccd1 vssd1 gf180mcu_fd_sc_mcu7t5v0__aoi22_1
XFILLER_32_486 vccd1 vssd1 gf180mcu_fd_sc_mcu7t5v0__fill_2
XFILLER_80_2 vccd1 vssd1 gf180mcu_fd_sc_mcu7t5v0__fillcap_16
XFILLER_34_1031 vccd1 vssd1 gf180mcu_fd_sc_mcu7t5v0__fill_1
XANTENNA__08619__I1 u2.mem\[12\]\[3\] vccd1 vssd1 gf180mcu_fd_sc_mcu7t5v0__antenna
XFILLER_125_1170 vccd1 vssd1 gf180mcu_fd_sc_mcu7t5v0__fillcap_4
XFILLER_164_108 vccd1 vssd1 gf180mcu_fd_sc_mcu7t5v0__fillcap_4
X_07151_ u2.mem\[5\]\[0\] _02627_ _02629_ u2.mem\[38\]\[0\] _02630_ vccd1 vssd1 gf180mcu_fd_sc_mcu7t5v0__aoi22_1
XANTENNA_clkbuf_leaf_67_clock_I clknet_5_9_0_clock vccd1 vssd1 gf180mcu_fd_sc_mcu7t5v0__antenna
XFILLER_9_671 vccd1 vssd1 gf180mcu_fd_sc_mcu7t5v0__fill_2
XFILLER_146_834 vccd1 vssd1 gf180mcu_fd_sc_mcu7t5v0__fill_2
XFILLER_121_1034 vccd1 vssd1 gf180mcu_fd_sc_mcu7t5v0__fill_2
XFILLER_157_182 vccd1 vssd1 gf180mcu_fd_sc_mcu7t5v0__fill_2
XANTENNA__09292__I1 u2.mem\[27\]\[3\] vccd1 vssd1 gf180mcu_fd_sc_mcu7t5v0__antenna
XFILLER_34_1097 vccd1 vssd1 gf180mcu_fd_sc_mcu7t5v0__fill_2
X_06102_ _01547_ _01608_ _01609_ vccd1 vssd1 gf180mcu_fd_sc_mcu7t5v0__or2_1
XFILLER_146_867 vccd1 vssd1 gf180mcu_fd_sc_mcu7t5v0__fill_2
XFILLER_121_1067 vccd1 vssd1 gf180mcu_fd_sc_mcu7t5v0__fill_1
XANTENNA__09794__S _04633_ vccd1 vssd1 gf180mcu_fd_sc_mcu7t5v0__antenna
XFILLER_146_878 vccd1 vssd1 gf180mcu_fd_sc_mcu7t5v0__fillcap_8
XANTENNA__06255__B2 u2.mem\[153\]\[1\] vccd1 vssd1 gf180mcu_fd_sc_mcu7t5v0__antenna
X_07082_ _02560_ _02561_ vccd1 vssd1 gf180mcu_fd_sc_mcu7t5v0__buf_1
XFILLER_69_1127 vccd1 vssd1 gf180mcu_fd_sc_mcu7t5v0__fill_2
XANTENNA__13393__CLK clknet_5_16_0_clock vccd1 vssd1 gf180mcu_fd_sc_mcu7t5v0__antenna
XFILLER_69_1138 vccd1 vssd1 gf180mcu_fd_sc_mcu7t5v0__fill_2
XFILLER_161_815 vccd1 vssd1 gf180mcu_fd_sc_mcu7t5v0__fillcap_8
XFILLER_146_889 vccd1 vssd1 gf180mcu_fd_sc_mcu7t5v0__fillcap_16
XFILLER_156_1108 vccd1 vssd1 gf180mcu_fd_sc_mcu7t5v0__fill_1
XFILLER_103_1490 vccd1 vssd1 gf180mcu_fd_sc_mcu7t5v0__fill_1
XFILLER_12_1373 vccd1 vssd1 gf180mcu_fd_sc_mcu7t5v0__fillcap_8
XANTENNA__11829__S _05896_ vccd1 vssd1 gf180mcu_fd_sc_mcu7t5v0__antenna
X_06033_ _01528_ _01540_ _01541_ _01542_ vccd1 vssd1 gf180mcu_fd_sc_mcu7t5v0__mux2_2
XFILLER_47_1414 vccd1 vssd1 gf180mcu_fd_sc_mcu7t5v0__fillcap_4
XFILLER_173_1422 vccd1 vssd1 gf180mcu_fd_sc_mcu7t5v0__fillcap_64
XANTENNA__07204__B1 _02681_ vccd1 vssd1 gf180mcu_fd_sc_mcu7t5v0__antenna
XFILLER_99_442 vccd1 vssd1 gf180mcu_fd_sc_mcu7t5v0__fill_2
XANTENNA__11926__I1 u2.mem\[193\]\[5\] vccd1 vssd1 gf180mcu_fd_sc_mcu7t5v0__antenna
XFILLER_141_550 vccd1 vssd1 gf180mcu_fd_sc_mcu7t5v0__fill_2
XFILLER_114_764 vccd1 vssd1 gf180mcu_fd_sc_mcu7t5v0__fill_2
XFILLER_86_1496 vccd1 vssd1 gf180mcu_fd_sc_mcu7t5v0__fillcap_16
XFILLER_102_926 vccd1 vssd1 gf180mcu_fd_sc_mcu7t5v0__fill_2
XFILLER_59_306 vccd1 vssd1 gf180mcu_fd_sc_mcu7t5v0__fill_2
XFILLER_141_583 vccd1 vssd1 gf180mcu_fd_sc_mcu7t5v0__fill_2
XANTENNA__07327__B _02745_ vccd1 vssd1 gf180mcu_fd_sc_mcu7t5v0__antenna
X_07984_ u2.mem\[17\]\[15\] _03310_ _03311_ u2.mem\[24\]\[15\] _03448_ vccd1 vssd1
+ gf180mcu_fd_sc_mcu7t5v0__aoi22_1