* NGSPICE file created from spi_controller.ext - technology: gf180mcuC

* Black-box entry subcircuit for gf180mcu_fd_sc_mcu7t5v0__fillcap_32 abstract view
.subckt gf180mcu_fd_sc_mcu7t5v0__fillcap_32 VDD VSS
.ends

* Black-box entry subcircuit for gf180mcu_fd_sc_mcu7t5v0__filltie abstract view
.subckt gf180mcu_fd_sc_mcu7t5v0__filltie VDD VSS
.ends

* Black-box entry subcircuit for gf180mcu_fd_sc_mcu7t5v0__fill_2 abstract view
.subckt gf180mcu_fd_sc_mcu7t5v0__fill_2 VDD VSS
.ends

* Black-box entry subcircuit for gf180mcu_fd_sc_mcu7t5v0__fillcap_4 abstract view
.subckt gf180mcu_fd_sc_mcu7t5v0__fillcap_4 VDD VSS
.ends

* Black-box entry subcircuit for gf180mcu_fd_sc_mcu7t5v0__antenna abstract view
.subckt gf180mcu_fd_sc_mcu7t5v0__antenna I VDD VSS
.ends

* Black-box entry subcircuit for gf180mcu_fd_sc_mcu7t5v0__fillcap_64 abstract view
.subckt gf180mcu_fd_sc_mcu7t5v0__fillcap_64 VDD VSS
.ends

* Black-box entry subcircuit for gf180mcu_fd_sc_mcu7t5v0__fill_1 abstract view
.subckt gf180mcu_fd_sc_mcu7t5v0__fill_1 VDD VSS
.ends

* Black-box entry subcircuit for gf180mcu_fd_sc_mcu7t5v0__fillcap_8 abstract view
.subckt gf180mcu_fd_sc_mcu7t5v0__fillcap_8 VDD VSS
.ends

* Black-box entry subcircuit for gf180mcu_fd_sc_mcu7t5v0__clkbuf_1 abstract view
.subckt gf180mcu_fd_sc_mcu7t5v0__clkbuf_1 I Z VDD VSS
.ends

* Black-box entry subcircuit for gf180mcu_fd_sc_mcu7t5v0__fillcap_16 abstract view
.subckt gf180mcu_fd_sc_mcu7t5v0__fillcap_16 VDD VSS
.ends

* Black-box entry subcircuit for gf180mcu_fd_sc_mcu7t5v0__clkbuf_4 abstract view
.subckt gf180mcu_fd_sc_mcu7t5v0__clkbuf_4 I Z VDD VSS
.ends

* Black-box entry subcircuit for gf180mcu_fd_sc_mcu7t5v0__mux2_2 abstract view
.subckt gf180mcu_fd_sc_mcu7t5v0__mux2_2 I0 I1 S Z VDD VSS
.ends

* Black-box entry subcircuit for gf180mcu_fd_sc_mcu7t5v0__dffq_1 abstract view
.subckt gf180mcu_fd_sc_mcu7t5v0__dffq_1 D CLK Q VDD VSS
.ends

* Black-box entry subcircuit for gf180mcu_fd_sc_mcu7t5v0__clkbuf_16 abstract view
.subckt gf180mcu_fd_sc_mcu7t5v0__clkbuf_16 I Z VDD VSS
.ends

* Black-box entry subcircuit for gf180mcu_fd_sc_mcu7t5v0__buf_2 abstract view
.subckt gf180mcu_fd_sc_mcu7t5v0__buf_2 I Z VDD VSS
.ends

* Black-box entry subcircuit for gf180mcu_fd_sc_mcu7t5v0__endcap abstract view
.subckt gf180mcu_fd_sc_mcu7t5v0__endcap VDD VSS
.ends

* Black-box entry subcircuit for gf180mcu_fd_sc_mcu7t5v0__clkinv_1 abstract view
.subckt gf180mcu_fd_sc_mcu7t5v0__clkinv_1 I ZN VDD VSS
.ends

* Black-box entry subcircuit for gf180mcu_fd_sc_mcu7t5v0__and2_1 abstract view
.subckt gf180mcu_fd_sc_mcu7t5v0__and2_1 A1 A2 Z VDD VSS
.ends

* Black-box entry subcircuit for gf180mcu_fd_sc_mcu7t5v0__tiel abstract view
.subckt gf180mcu_fd_sc_mcu7t5v0__tiel ZN VDD VSS
.ends

* Black-box entry subcircuit for gf180mcu_fd_sc_mcu7t5v0__tieh abstract view
.subckt gf180mcu_fd_sc_mcu7t5v0__tieh Z VDD VSS
.ends

* Black-box entry subcircuit for gf180mcu_fd_sc_mcu7t5v0__buf_1 abstract view
.subckt gf180mcu_fd_sc_mcu7t5v0__buf_1 I Z VDD VSS
.ends

* Black-box entry subcircuit for gf180mcu_fd_sc_mcu7t5v0__nand3_1 abstract view
.subckt gf180mcu_fd_sc_mcu7t5v0__nand3_1 A1 A2 A3 ZN VDD VSS
.ends

* Black-box entry subcircuit for gf180mcu_fd_sc_mcu7t5v0__nand2_1 abstract view
.subckt gf180mcu_fd_sc_mcu7t5v0__nand2_1 A1 A2 ZN VDD VSS
.ends

.subckt spi_controller clock clock_out data_out[0] data_out[10] data_out[11] data_out[12]
+ data_out[13] data_out[14] data_out[15] data_out[16] data_out[17] data_out[18] data_out[19]
+ data_out[1] data_out[20] data_out[21] data_out[22] data_out[23] data_out[24] data_out[25]
+ data_out[26] data_out[27] data_out[28] data_out[29] data_out[2] data_out[30] data_out[31]
+ data_out[3] data_out[4] data_out[5] data_out[6] data_out[7] data_out[8] data_out[9]
+ la_data_in[0] la_data_in[1] la_data_in[2] la_data_in[3] la_oenb[0] la_oenb[1] la_oenb[2]
+ la_oenb[3] miso miso_oeb mosi mosi_oeb sclk sclk_oeb ss_n ss_n_oeb vccd1 vssd1
XFILLER_54_247 vccd1 vssd1 gf180mcu_fd_sc_mcu7t5v0__fillcap_32
XTAP_177 vccd1 vssd1 gf180mcu_fd_sc_mcu7t5v0__filltie
XTAP_188 vccd1 vssd1 gf180mcu_fd_sc_mcu7t5v0__filltie
XTAP_199 vccd1 vssd1 gf180mcu_fd_sc_mcu7t5v0__filltie
XFILLER_27_417 vccd1 vssd1 gf180mcu_fd_sc_mcu7t5v0__fill_2
XFILLER_7_7 vccd1 vssd1 gf180mcu_fd_sc_mcu7t5v0__fillcap_4
XANTENNA__113__I1 net9 vccd1 vssd1 gf180mcu_fd_sc_mcu7t5v0__antenna
XANTENNA_output37_I net37 vccd1 vssd1 gf180mcu_fd_sc_mcu7t5v0__antenna
XFILLER_9_159 vccd1 vssd1 gf180mcu_fd_sc_mcu7t5v0__fill_2
XFILLER_13_144 vccd1 vssd1 gf180mcu_fd_sc_mcu7t5v0__fillcap_64
XFILLER_5_354 vccd1 vssd1 gf180mcu_fd_sc_mcu7t5v0__fill_1
XFILLER_36_247 vccd1 vssd1 gf180mcu_fd_sc_mcu7t5v0__fill_1
XFILLER_3_89 vccd1 vssd1 gf180mcu_fd_sc_mcu7t5v0__fillcap_8
XANTENNA__104__I1 net36 vccd1 vssd1 gf180mcu_fd_sc_mcu7t5v0__antenna
XFILLER_50_250 vccd1 vssd1 gf180mcu_fd_sc_mcu7t5v0__fillcap_64
XANTENNA__163__CLK clknet_2_0__leaf_clock vccd1 vssd1 gf180mcu_fd_sc_mcu7t5v0__antenna
XFILLER_2_368 vccd1 vssd1 gf180mcu_fd_sc_mcu7t5v0__fill_2
XFILLER_37_73 vccd1 vssd1 gf180mcu_fd_sc_mcu7t5v0__fillcap_64
XFILLER_18_247 vccd1 vssd1 gf180mcu_fd_sc_mcu7t5v0__fill_1
XFILLER_41_283 vccd1 vssd1 gf180mcu_fd_sc_mcu7t5v0__fill_1
XFILLER_5_140 vccd1 vssd1 gf180mcu_fd_sc_mcu7t5v0__fill_2
XFILLER_49_350 vccd1 vssd1 gf180mcu_fd_sc_mcu7t5v0__fillcap_4
XFILLER_32_250 vccd1 vssd1 gf180mcu_fd_sc_mcu7t5v0__fillcap_64
XANTENNA__186__CLK clknet_2_1__leaf_clock vccd1 vssd1 gf180mcu_fd_sc_mcu7t5v0__antenna
XFILLER_23_283 vccd1 vssd1 gf180mcu_fd_sc_mcu7t5v0__fill_1
X_131_ _045_ _020_ vccd1 vssd1 gf180mcu_fd_sc_mcu7t5v0__clkbuf_1
XFILLER_2_187 vccd1 vssd1 gf180mcu_fd_sc_mcu7t5v0__fillcap_4
XFILLER_2_132 vccd1 vssd1 gf180mcu_fd_sc_mcu7t5v0__fill_2
XFILLER_0_68 vccd1 vssd1 gf180mcu_fd_sc_mcu7t5v0__fill_2
XFILLER_9_66 vccd1 vssd1 gf180mcu_fd_sc_mcu7t5v0__fillcap_4
XFILLER_14_250 vccd1 vssd1 gf180mcu_fd_sc_mcu7t5v0__fillcap_32
XFILLER_43_2 vccd1 vssd1 gf180mcu_fd_sc_mcu7t5v0__fillcap_64
XFILLER_52_389 vccd1 vssd1 gf180mcu_fd_sc_mcu7t5v0__fill_1
XFILLER_37_397 vccd1 vssd1 gf180mcu_fd_sc_mcu7t5v0__fillcap_4
XFILLER_4_419 vccd1 vssd1 gf180mcu_fd_sc_mcu7t5v0__fill_1
XFILLER_20_297 vccd1 vssd1 gf180mcu_fd_sc_mcu7t5v0__fill_2
XFILLER_28_386 vccd1 vssd1 gf180mcu_fd_sc_mcu7t5v0__fillcap_4
XFILLER_43_389 vccd1 vssd1 gf180mcu_fd_sc_mcu7t5v0__fillcap_8
XFILLER_11_231 vccd1 vssd1 gf180mcu_fd_sc_mcu7t5v0__fillcap_4
XFILLER_11_286 vccd1 vssd1 gf180mcu_fd_sc_mcu7t5v0__fillcap_8
X_114_ _035_ _013_ vccd1 vssd1 gf180mcu_fd_sc_mcu7t5v0__clkbuf_1
XFILLER_46_172 vccd1 vssd1 gf180mcu_fd_sc_mcu7t5v0__fillcap_4
XFILLER_34_389 vccd1 vssd1 gf180mcu_fd_sc_mcu7t5v0__fill_1
XFILLER_19_397 vccd1 vssd1 gf180mcu_fd_sc_mcu7t5v0__fillcap_4
XANTENNA__080__A1 ss_n_reg\[2\] vccd1 vssd1 gf180mcu_fd_sc_mcu7t5v0__antenna
XFILLER_25_323 vccd1 vssd1 gf180mcu_fd_sc_mcu7t5v0__fill_2
XFILLER_25_389 vccd1 vssd1 gf180mcu_fd_sc_mcu7t5v0__fillcap_16
XFILLER_45_73 vccd1 vssd1 gf180mcu_fd_sc_mcu7t5v0__fillcap_64
XFILLER_16_389 vccd1 vssd1 gf180mcu_fd_sc_mcu7t5v0__fill_1
XFILLER_28_172 vccd1 vssd1 gf180mcu_fd_sc_mcu7t5v0__fillcap_4
XFILLER_6_34 vccd1 vssd1 gf180mcu_fd_sc_mcu7t5v0__fill_1
XTAP_348 vccd1 vssd1 gf180mcu_fd_sc_mcu7t5v0__filltie
XTAP_337 vccd1 vssd1 gf180mcu_fd_sc_mcu7t5v0__filltie
XTAP_326 vccd1 vssd1 gf180mcu_fd_sc_mcu7t5v0__filltie
XTAP_315 vccd1 vssd1 gf180mcu_fd_sc_mcu7t5v0__filltie
XTAP_304 vccd1 vssd1 gf180mcu_fd_sc_mcu7t5v0__filltie
XFILLER_6_67 vccd1 vssd1 gf180mcu_fd_sc_mcu7t5v0__fillcap_4
XTAP_359 vccd1 vssd1 gf180mcu_fd_sc_mcu7t5v0__filltie
XFILLER_22_337 vccd1 vssd1 gf180mcu_fd_sc_mcu7t5v0__fill_2
XFILLER_30_392 vccd1 vssd1 gf180mcu_fd_sc_mcu7t5v0__fillcap_8
XFILLER_30_381 vccd1 vssd1 gf180mcu_fd_sc_mcu7t5v0__fillcap_8
XFILLER_40_101 vccd1 vssd1 gf180mcu_fd_sc_mcu7t5v0__fillcap_4
XFILLER_13_315 vccd1 vssd1 gf180mcu_fd_sc_mcu7t5v0__fill_2
Xoutput20 net20 data_out[23] vccd1 vssd1 gf180mcu_fd_sc_mcu7t5v0__clkbuf_4
Xoutput31 net31 data_out[4] vccd1 vssd1 gf180mcu_fd_sc_mcu7t5v0__clkbuf_4
Xoutput7 net7 data_out[11] vccd1 vssd1 gf180mcu_fd_sc_mcu7t5v0__clkbuf_4
XFILLER_0_274 vccd1 vssd1 gf180mcu_fd_sc_mcu7t5v0__fillcap_4
XFILLER_8_385 vccd1 vssd1 gf180mcu_fd_sc_mcu7t5v0__fillcap_4
XFILLER_12_392 vccd1 vssd1 gf180mcu_fd_sc_mcu7t5v0__fillcap_16
XFILLER_39_212 vccd1 vssd1 gf180mcu_fd_sc_mcu7t5v0__fill_1
XTAP_145 vccd1 vssd1 gf180mcu_fd_sc_mcu7t5v0__filltie
XTAP_134 vccd1 vssd1 gf180mcu_fd_sc_mcu7t5v0__filltie
XTAP_112 vccd1 vssd1 gf180mcu_fd_sc_mcu7t5v0__filltie
XTAP_123 vccd1 vssd1 gf180mcu_fd_sc_mcu7t5v0__filltie
XTAP_156 vccd1 vssd1 gf180mcu_fd_sc_mcu7t5v0__filltie
XTAP_167 vccd1 vssd1 gf180mcu_fd_sc_mcu7t5v0__filltie
XTAP_178 vccd1 vssd1 gf180mcu_fd_sc_mcu7t5v0__filltie
XTAP_189 vccd1 vssd1 gf180mcu_fd_sc_mcu7t5v0__filltie
XFILLER_22_101 vccd1 vssd1 gf180mcu_fd_sc_mcu7t5v0__fillcap_4
XFILLER_45_215 vccd1 vssd1 gf180mcu_fd_sc_mcu7t5v0__fillcap_64
XFILLER_9_105 vccd1 vssd1 gf180mcu_fd_sc_mcu7t5v0__fill_2
XFILLER_5_300 vccd1 vssd1 gf180mcu_fd_sc_mcu7t5v0__fill_1
XANTENNA_clkbuf_2_1__f_clock_I clknet_0_clock vccd1 vssd1 gf180mcu_fd_sc_mcu7t5v0__antenna
XFILLER_27_215 vccd1 vssd1 gf180mcu_fd_sc_mcu7t5v0__fillcap_64
XFILLER_6_108 vccd1 vssd1 gf180mcu_fd_sc_mcu7t5v0__fill_1
XFILLER_53_73 vccd1 vssd1 gf180mcu_fd_sc_mcu7t5v0__fillcap_64
X_130_ net15 net17 _044_ _045_ vccd1 vssd1 gf180mcu_fd_sc_mcu7t5v0__mux2_2
XFILLER_3_2 vccd1 vssd1 gf180mcu_fd_sc_mcu7t5v0__fillcap_64
XFILLER_46_321 vccd1 vssd1 gf180mcu_fd_sc_mcu7t5v0__fillcap_64
XFILLER_0_25 vccd1 vssd1 gf180mcu_fd_sc_mcu7t5v0__fillcap_8
XFILLER_9_12 vccd1 vssd1 gf180mcu_fd_sc_mcu7t5v0__fill_1
XFILLER_14_284 vccd1 vssd1 gf180mcu_fd_sc_mcu7t5v0__fill_1
XFILLER_36_2 vccd1 vssd1 gf180mcu_fd_sc_mcu7t5v0__fillcap_32
XFILLER_37_354 vccd1 vssd1 gf180mcu_fd_sc_mcu7t5v0__fill_1
XFILLER_20_243 vccd1 vssd1 gf180mcu_fd_sc_mcu7t5v0__fillcap_4
XFILLER_20_287 vccd1 vssd1 gf180mcu_fd_sc_mcu7t5v0__fill_1
XFILLER_43_357 vccd1 vssd1 gf180mcu_fd_sc_mcu7t5v0__fillcap_32
XFILLER_28_321 vccd1 vssd1 gf180mcu_fd_sc_mcu7t5v0__fillcap_16
XFILLER_28_354 vccd1 vssd1 gf180mcu_fd_sc_mcu7t5v0__fillcap_32
XANTENNA_output12_I net12 vccd1 vssd1 gf180mcu_fd_sc_mcu7t5v0__antenna
XFILLER_7_247 vccd1 vssd1 gf180mcu_fd_sc_mcu7t5v0__fillcap_4
X_113_ net8 net9 _033_ _035_ vccd1 vssd1 gf180mcu_fd_sc_mcu7t5v0__mux2_2
XANTENNA__176__CLK clknet_2_3__leaf_clock vccd1 vssd1 gf180mcu_fd_sc_mcu7t5v0__antenna
XFILLER_19_354 vccd1 vssd1 gf180mcu_fd_sc_mcu7t5v0__fill_1
XANTENNA__152__I0 net26 vccd1 vssd1 gf180mcu_fd_sc_mcu7t5v0__antenna
XANTENNA__080__A2 ss_n_reg\[1\] vccd1 vssd1 gf180mcu_fd_sc_mcu7t5v0__antenna
XFILLER_25_302 vccd1 vssd1 gf180mcu_fd_sc_mcu7t5v0__fillcap_8
XFILLER_25_357 vccd1 vssd1 gf180mcu_fd_sc_mcu7t5v0__fillcap_32
XFILLER_52_176 vccd1 vssd1 gf180mcu_fd_sc_mcu7t5v0__fill_1
XANTENNA__143__I0 net22 vccd1 vssd1 gf180mcu_fd_sc_mcu7t5v0__antenna
XFILLER_16_324 vccd1 vssd1 gf180mcu_fd_sc_mcu7t5v0__fill_2
XTAP_349 vccd1 vssd1 gf180mcu_fd_sc_mcu7t5v0__filltie
XTAP_338 vccd1 vssd1 gf180mcu_fd_sc_mcu7t5v0__filltie
XTAP_327 vccd1 vssd1 gf180mcu_fd_sc_mcu7t5v0__filltie
XTAP_316 vccd1 vssd1 gf180mcu_fd_sc_mcu7t5v0__filltie
XTAP_305 vccd1 vssd1 gf180mcu_fd_sc_mcu7t5v0__filltie
XFILLER_3_294 vccd1 vssd1 gf180mcu_fd_sc_mcu7t5v0__fillcap_4
XFILLER_3_283 vccd1 vssd1 gf180mcu_fd_sc_mcu7t5v0__fill_1
XANTENNA__134__I0 net18 vccd1 vssd1 gf180mcu_fd_sc_mcu7t5v0__antenna
XFILLER_54_419 vccd1 vssd1 gf180mcu_fd_sc_mcu7t5v0__fill_1
XFILLER_34_176 vccd1 vssd1 gf180mcu_fd_sc_mcu7t5v0__fill_1
XFILLER_22_305 vccd1 vssd1 gf180mcu_fd_sc_mcu7t5v0__fillcap_4
XANTENNA__125__I0 net13 vccd1 vssd1 gf180mcu_fd_sc_mcu7t5v0__antenna
XFILLER_45_419 vccd1 vssd1 gf180mcu_fd_sc_mcu7t5v0__fill_1
XFILLER_13_349 vccd1 vssd1 gf180mcu_fd_sc_mcu7t5v0__fill_2
XFILLER_40_179 vccd1 vssd1 gf180mcu_fd_sc_mcu7t5v0__fillcap_64
Xoutput21 net21 data_out[24] vccd1 vssd1 gf180mcu_fd_sc_mcu7t5v0__clkbuf_4
Xoutput32 net32 data_out[5] vccd1 vssd1 gf180mcu_fd_sc_mcu7t5v0__clkbuf_4
Xoutput8 net8 data_out[12] vccd1 vssd1 gf180mcu_fd_sc_mcu7t5v0__clkbuf_4
Xoutput10 net10 data_out[14] vccd1 vssd1 gf180mcu_fd_sc_mcu7t5v0__clkbuf_4
XFILLER_36_408 vccd1 vssd1 gf180mcu_fd_sc_mcu7t5v0__fillcap_8
XFILLER_16_176 vccd1 vssd1 gf180mcu_fd_sc_mcu7t5v0__fill_1
XFILLER_8_353 vccd1 vssd1 gf180mcu_fd_sc_mcu7t5v0__fill_2
XANTENNA_input3_I ss_n vccd1 vssd1 gf180mcu_fd_sc_mcu7t5v0__antenna
XTAP_146 vccd1 vssd1 gf180mcu_fd_sc_mcu7t5v0__filltie
XTAP_135 vccd1 vssd1 gf180mcu_fd_sc_mcu7t5v0__filltie
XTAP_113 vccd1 vssd1 gf180mcu_fd_sc_mcu7t5v0__filltie
XTAP_124 vccd1 vssd1 gf180mcu_fd_sc_mcu7t5v0__filltie
XTAP_157 vccd1 vssd1 gf180mcu_fd_sc_mcu7t5v0__filltie
XTAP_168 vccd1 vssd1 gf180mcu_fd_sc_mcu7t5v0__filltie
XTAP_179 vccd1 vssd1 gf180mcu_fd_sc_mcu7t5v0__filltie
XFILLER_50_400 vccd1 vssd1 gf180mcu_fd_sc_mcu7t5v0__fill_1
XFILLER_39_279 vccd1 vssd1 gf180mcu_fd_sc_mcu7t5v0__fillcap_4
XFILLER_27_419 vccd1 vssd1 gf180mcu_fd_sc_mcu7t5v0__fill_1
XFILLER_22_179 vccd1 vssd1 gf180mcu_fd_sc_mcu7t5v0__fillcap_64
XFILLER_18_408 vccd1 vssd1 gf180mcu_fd_sc_mcu7t5v0__fillcap_8
XFILLER_5_334 vccd1 vssd1 gf180mcu_fd_sc_mcu7t5v0__fill_2
XFILLER_51_208 vccd1 vssd1 gf180mcu_fd_sc_mcu7t5v0__fillcap_4
XFILLER_32_400 vccd1 vssd1 gf180mcu_fd_sc_mcu7t5v0__fill_1
XFILLER_10_105 vccd1 vssd1 gf180mcu_fd_sc_mcu7t5v0__fill_1
XFILLER_12_34 vccd1 vssd1 gf180mcu_fd_sc_mcu7t5v0__fill_1
XFILLER_33_208 vccd1 vssd1 gf180mcu_fd_sc_mcu7t5v0__fillcap_4
XFILLER_1_370 vccd1 vssd1 gf180mcu_fd_sc_mcu7t5v0__fillcap_32
XFILLER_17_271 vccd1 vssd1 gf180mcu_fd_sc_mcu7t5v0__fill_2
XFILLER_20_403 vccd1 vssd1 gf180mcu_fd_sc_mcu7t5v0__fill_2
XFILLER_15_208 vccd1 vssd1 gf180mcu_fd_sc_mcu7t5v0__fillcap_4
XFILLER_11_403 vccd1 vssd1 gf180mcu_fd_sc_mcu7t5v0__fill_2
XFILLER_23_66 vccd1 vssd1 gf180mcu_fd_sc_mcu7t5v0__fillcap_4
XFILLER_2_101 vccd1 vssd1 gf180mcu_fd_sc_mcu7t5v0__fillcap_4
XFILLER_0_37 vccd1 vssd1 gf180mcu_fd_sc_mcu7t5v0__fillcap_16
XFILLER_9_46 vccd1 vssd1 gf180mcu_fd_sc_mcu7t5v0__fill_2
X_189_ _024_ clknet_2_3__leaf_clock net21 vccd1 vssd1 gf180mcu_fd_sc_mcu7t5v0__dffq_1
XFILLER_29_2 vccd1 vssd1 gf180mcu_fd_sc_mcu7t5v0__fillcap_64
XFILLER_52_314 vccd1 vssd1 gf180mcu_fd_sc_mcu7t5v0__fillcap_4
XFILLER_7_215 vccd1 vssd1 gf180mcu_fd_sc_mcu7t5v0__fillcap_32
XFILLER_11_211 vccd1 vssd1 gf180mcu_fd_sc_mcu7t5v0__fill_2
XFILLER_11_299 vccd1 vssd1 gf180mcu_fd_sc_mcu7t5v0__fill_2
X_112_ _034_ _012_ vccd1 vssd1 gf180mcu_fd_sc_mcu7t5v0__clkbuf_1
XFILLER_38_108 vccd1 vssd1 gf180mcu_fd_sc_mcu7t5v0__fillcap_64
XFILLER_34_314 vccd1 vssd1 gf180mcu_fd_sc_mcu7t5v0__fillcap_4
XANTENNA__152__I1 net28 vccd1 vssd1 gf180mcu_fd_sc_mcu7t5v0__antenna
XFILLER_37_141 vccd1 vssd1 gf180mcu_fd_sc_mcu7t5v0__fill_1
XFILLER_25_314 vccd1 vssd1 gf180mcu_fd_sc_mcu7t5v0__fill_2
XFILLER_20_34 vccd1 vssd1 gf180mcu_fd_sc_mcu7t5v0__fill_1
XANTENNA__143__I1 net23 vccd1 vssd1 gf180mcu_fd_sc_mcu7t5v0__antenna
XFILLER_43_144 vccd1 vssd1 gf180mcu_fd_sc_mcu7t5v0__fillcap_64
XFILLER_31_317 vccd1 vssd1 gf180mcu_fd_sc_mcu7t5v0__fill_2
XFILLER_16_336 vccd1 vssd1 gf180mcu_fd_sc_mcu7t5v0__fillcap_4
XFILLER_16_347 vccd1 vssd1 gf180mcu_fd_sc_mcu7t5v0__fill_2
XTAP_339 vccd1 vssd1 gf180mcu_fd_sc_mcu7t5v0__filltie
XTAP_328 vccd1 vssd1 gf180mcu_fd_sc_mcu7t5v0__filltie
XTAP_317 vccd1 vssd1 gf180mcu_fd_sc_mcu7t5v0__filltie
XTAP_306 vccd1 vssd1 gf180mcu_fd_sc_mcu7t5v0__filltie
XANTENNA__134__I1 net19 vccd1 vssd1 gf180mcu_fd_sc_mcu7t5v0__antenna
XFILLER_19_141 vccd1 vssd1 gf180mcu_fd_sc_mcu7t5v0__fill_1
XANTENNA__125__I1 net14 vccd1 vssd1 gf180mcu_fd_sc_mcu7t5v0__antenna
XFILLER_13_306 vccd1 vssd1 gf180mcu_fd_sc_mcu7t5v0__fill_2
XFILLER_25_144 vccd1 vssd1 gf180mcu_fd_sc_mcu7t5v0__fillcap_64
XANTENNA__166__CLK clknet_2_2__leaf_clock vccd1 vssd1 gf180mcu_fd_sc_mcu7t5v0__antenna
Xoutput22 net22 data_out[25] vccd1 vssd1 gf180mcu_fd_sc_mcu7t5v0__clkbuf_4
XFILLER_0_254 vccd1 vssd1 gf180mcu_fd_sc_mcu7t5v0__fill_2
Xoutput33 net33 data_out[6] vccd1 vssd1 gf180mcu_fd_sc_mcu7t5v0__clkbuf_4
Xoutput9 net9 data_out[13] vccd1 vssd1 gf180mcu_fd_sc_mcu7t5v0__clkbuf_4
Xoutput11 net11 data_out[15] vccd1 vssd1 gf180mcu_fd_sc_mcu7t5v0__clkbuf_4
XFILLER_48_247 vccd1 vssd1 gf180mcu_fd_sc_mcu7t5v0__fill_1
XFILLER_8_321 vccd1 vssd1 gf180mcu_fd_sc_mcu7t5v0__fillcap_32
XTAP_114 vccd1 vssd1 gf180mcu_fd_sc_mcu7t5v0__filltie
XTAP_147 vccd1 vssd1 gf180mcu_fd_sc_mcu7t5v0__filltie
XTAP_136 vccd1 vssd1 gf180mcu_fd_sc_mcu7t5v0__filltie
XTAP_125 vccd1 vssd1 gf180mcu_fd_sc_mcu7t5v0__filltie
XTAP_158 vccd1 vssd1 gf180mcu_fd_sc_mcu7t5v0__filltie
XTAP_169 vccd1 vssd1 gf180mcu_fd_sc_mcu7t5v0__filltie
XFILLER_11_2 vccd1 vssd1 gf180mcu_fd_sc_mcu7t5v0__fillcap_64
XANTENNA__189__CLK clknet_2_3__leaf_clock vccd1 vssd1 gf180mcu_fd_sc_mcu7t5v0__antenna
XFILLER_53_283 vccd1 vssd1 gf180mcu_fd_sc_mcu7t5v0__fill_1
XFILLER_9_107 vccd1 vssd1 gf180mcu_fd_sc_mcu7t5v0__fill_1
XFILLER_5_368 vccd1 vssd1 gf180mcu_fd_sc_mcu7t5v0__fill_1
XFILLER_5_357 vccd1 vssd1 gf180mcu_fd_sc_mcu7t5v0__fill_1
XFILLER_5_346 vccd1 vssd1 gf180mcu_fd_sc_mcu7t5v0__fillcap_4
XFILLER_44_250 vccd1 vssd1 gf180mcu_fd_sc_mcu7t5v0__fillcap_64
XFILLER_35_283 vccd1 vssd1 gf180mcu_fd_sc_mcu7t5v0__fill_1
XANTENNA_output35_I net35 vccd1 vssd1 gf180mcu_fd_sc_mcu7t5v0__antenna
XFILLER_26_250 vccd1 vssd1 gf180mcu_fd_sc_mcu7t5v0__fillcap_64
XFILLER_41_286 vccd1 vssd1 gf180mcu_fd_sc_mcu7t5v0__fillcap_64
XFILLER_1_360 vccd1 vssd1 gf180mcu_fd_sc_mcu7t5v0__fill_2
XFILLER_17_283 vccd1 vssd1 gf180mcu_fd_sc_mcu7t5v0__fill_1
XFILLER_7_419 vccd1 vssd1 gf180mcu_fd_sc_mcu7t5v0__fill_1
XFILLER_23_286 vccd1 vssd1 gf180mcu_fd_sc_mcu7t5v0__fillcap_16
XFILLER_2_179 vccd1 vssd1 gf180mcu_fd_sc_mcu7t5v0__fillcap_8
XFILLER_2_124 vccd1 vssd1 gf180mcu_fd_sc_mcu7t5v0__fillcap_8
XFILLER_46_389 vccd1 vssd1 gf180mcu_fd_sc_mcu7t5v0__fill_1
X_188_ _023_ clknet_2_1__leaf_clock net20 vccd1 vssd1 gf180mcu_fd_sc_mcu7t5v0__dffq_1
XFILLER_37_389 vccd1 vssd1 gf180mcu_fd_sc_mcu7t5v0__fillcap_8
XFILLER_18_34 vccd1 vssd1 gf180mcu_fd_sc_mcu7t5v0__fill_1
XFILLER_28_345 vccd1 vssd1 gf180mcu_fd_sc_mcu7t5v0__fill_1
XFILLER_11_278 vccd1 vssd1 gf180mcu_fd_sc_mcu7t5v0__fill_2
X_111_ net7 net8 _033_ _034_ vccd1 vssd1 gf180mcu_fd_sc_mcu7t5v0__mux2_2
XFILLER_19_301 vccd1 vssd1 gf180mcu_fd_sc_mcu7t5v0__fill_2
XFILLER_19_334 vccd1 vssd1 gf180mcu_fd_sc_mcu7t5v0__fillcap_16
XFILLER_19_389 vccd1 vssd1 gf180mcu_fd_sc_mcu7t5v0__fillcap_8
XFILLER_42_392 vccd1 vssd1 gf180mcu_fd_sc_mcu7t5v0__fillcap_16
XFILLER_41_2 vccd1 vssd1 gf180mcu_fd_sc_mcu7t5v0__fillcap_64
XFILLER_52_101 vccd1 vssd1 gf180mcu_fd_sc_mcu7t5v0__fillcap_4
XFILLER_40_318 vccd1 vssd1 gf180mcu_fd_sc_mcu7t5v0__fill_1
XFILLER_25_348 vccd1 vssd1 gf180mcu_fd_sc_mcu7t5v0__fillcap_4
XFILLER_0_403 vccd1 vssd1 gf180mcu_fd_sc_mcu7t5v0__fill_2
XFILLER_16_304 vccd1 vssd1 gf180mcu_fd_sc_mcu7t5v0__fill_2
XFILLER_29_66 vccd1 vssd1 gf180mcu_fd_sc_mcu7t5v0__fillcap_4
XFILLER_24_392 vccd1 vssd1 gf180mcu_fd_sc_mcu7t5v0__fillcap_8
XFILLER_6_37 vccd1 vssd1 gf180mcu_fd_sc_mcu7t5v0__fill_1
XTAP_329 vccd1 vssd1 gf180mcu_fd_sc_mcu7t5v0__filltie
XTAP_318 vccd1 vssd1 gf180mcu_fd_sc_mcu7t5v0__filltie
XTAP_307 vccd1 vssd1 gf180mcu_fd_sc_mcu7t5v0__filltie
XFILLER_34_101 vccd1 vssd1 gf180mcu_fd_sc_mcu7t5v0__fillcap_4
XFILLER_22_318 vccd1 vssd1 gf180mcu_fd_sc_mcu7t5v0__fill_1
XFILLER_30_340 vccd1 vssd1 gf180mcu_fd_sc_mcu7t5v0__fill_1
XFILLER_15_392 vccd1 vssd1 gf180mcu_fd_sc_mcu7t5v0__fillcap_8
Xoutput23 net23 data_out[26] vccd1 vssd1 gf180mcu_fd_sc_mcu7t5v0__clkbuf_4
Xoutput12 net12 data_out[16] vccd1 vssd1 gf180mcu_fd_sc_mcu7t5v0__clkbuf_4
Xoutput34 net34 data_out[7] vccd1 vssd1 gf180mcu_fd_sc_mcu7t5v0__clkbuf_4
XFILLER_0_244 vccd1 vssd1 gf180mcu_fd_sc_mcu7t5v0__fill_1
XFILLER_16_101 vccd1 vssd1 gf180mcu_fd_sc_mcu7t5v0__fillcap_4
XFILLER_31_137 vccd1 vssd1 gf180mcu_fd_sc_mcu7t5v0__fillcap_4
XFILLER_8_355 vccd1 vssd1 gf180mcu_fd_sc_mcu7t5v0__fill_1
XTAP_137 vccd1 vssd1 gf180mcu_fd_sc_mcu7t5v0__filltie
XTAP_126 vccd1 vssd1 gf180mcu_fd_sc_mcu7t5v0__filltie
XTAP_115 vccd1 vssd1 gf180mcu_fd_sc_mcu7t5v0__filltie
XTAP_148 vccd1 vssd1 gf180mcu_fd_sc_mcu7t5v0__filltie
XFILLER_39_215 vccd1 vssd1 gf180mcu_fd_sc_mcu7t5v0__fillcap_64
XTAP_159 vccd1 vssd1 gf180mcu_fd_sc_mcu7t5v0__filltie
XFILLER_26_34 vccd1 vssd1 gf180mcu_fd_sc_mcu7t5v0__fill_1
XFILLER_5_303 vccd1 vssd1 gf180mcu_fd_sc_mcu7t5v0__fill_2
XFILLER_13_137 vccd1 vssd1 gf180mcu_fd_sc_mcu7t5v0__fillcap_4
XFILLER_8_130 vccd1 vssd1 gf180mcu_fd_sc_mcu7t5v0__fill_1
XANTENNA__156__CLK clknet_2_1__leaf_clock vccd1 vssd1 gf180mcu_fd_sc_mcu7t5v0__antenna
Xclkbuf_0_clock clock clknet_0_clock vccd1 vssd1 gf180mcu_fd_sc_mcu7t5v0__clkbuf_16
XFILLER_23_413 vccd1 vssd1 gf180mcu_fd_sc_mcu7t5v0__fillcap_4
XFILLER_50_243 vccd1 vssd1 gf180mcu_fd_sc_mcu7t5v0__fillcap_4
XFILLER_37_66 vccd1 vssd1 gf180mcu_fd_sc_mcu7t5v0__fillcap_4
XANTENNA_output28_I net28 vccd1 vssd1 gf180mcu_fd_sc_mcu7t5v0__antenna
XFILLER_5_144 vccd1 vssd1 gf180mcu_fd_sc_mcu7t5v0__fill_1
XANTENNA__179__CLK clknet_2_2__leaf_clock vccd1 vssd1 gf180mcu_fd_sc_mcu7t5v0__antenna
XFILLER_49_354 vccd1 vssd1 gf180mcu_fd_sc_mcu7t5v0__fill_1
XFILLER_32_243 vccd1 vssd1 gf180mcu_fd_sc_mcu7t5v0__fillcap_4
XANTENNA_clkbuf_2_0__f_clock_I clknet_0_clock vccd1 vssd1 gf180mcu_fd_sc_mcu7t5v0__antenna
XFILLER_48_21 vccd1 vssd1 gf180mcu_fd_sc_mcu7t5v0__fillcap_8
XFILLER_2_136 vccd1 vssd1 gf180mcu_fd_sc_mcu7t5v0__fill_2
XFILLER_9_15 vccd1 vssd1 gf180mcu_fd_sc_mcu7t5v0__fill_2
XFILLER_14_243 vccd1 vssd1 gf180mcu_fd_sc_mcu7t5v0__fillcap_4
XFILLER_14_287 vccd1 vssd1 gf180mcu_fd_sc_mcu7t5v0__fill_2
X_187_ _022_ clknet_2_1__leaf_clock net19 vccd1 vssd1 gf180mcu_fd_sc_mcu7t5v0__dffq_1
XFILLER_37_357 vccd1 vssd1 gf180mcu_fd_sc_mcu7t5v0__fillcap_32
XFILLER_34_34 vccd1 vssd1 gf180mcu_fd_sc_mcu7t5v0__fill_1
XFILLER_11_235 vccd1 vssd1 gf180mcu_fd_sc_mcu7t5v0__fill_2
X_110_ _063_ _033_ vccd1 vssd1 gf180mcu_fd_sc_mcu7t5v0__buf_2
XFILLER_1_2 vccd1 vssd1 gf180mcu_fd_sc_mcu7t5v0__fill_1
XFILLER_46_176 vccd1 vssd1 gf180mcu_fd_sc_mcu7t5v0__fill_1
XFILLER_19_357 vccd1 vssd1 gf180mcu_fd_sc_mcu7t5v0__fillcap_32
XFILLER_34_2 vccd1 vssd1 gf180mcu_fd_sc_mcu7t5v0__fillcap_32
XFILLER_6_250 vccd1 vssd1 gf180mcu_fd_sc_mcu7t5v0__fillcap_64
XFILLER_25_316 vccd1 vssd1 gf180mcu_fd_sc_mcu7t5v0__fill_1
XFILLER_52_179 vccd1 vssd1 gf180mcu_fd_sc_mcu7t5v0__fillcap_64
XFILLER_48_419 vccd1 vssd1 gf180mcu_fd_sc_mcu7t5v0__fill_1
XFILLER_45_66 vccd1 vssd1 gf180mcu_fd_sc_mcu7t5v0__fillcap_4
XFILLER_16_316 vccd1 vssd1 gf180mcu_fd_sc_mcu7t5v0__fill_2
XFILLER_28_176 vccd1 vssd1 gf180mcu_fd_sc_mcu7t5v0__fill_1
XANTENNA_output10_I net10 vccd1 vssd1 gf180mcu_fd_sc_mcu7t5v0__antenna
XTAP_319 vccd1 vssd1 gf180mcu_fd_sc_mcu7t5v0__filltie
XTAP_308 vccd1 vssd1 gf180mcu_fd_sc_mcu7t5v0__filltie
XFILLER_3_286 vccd1 vssd1 gf180mcu_fd_sc_mcu7t5v0__fillcap_8
XFILLER_3_253 vccd1 vssd1 gf180mcu_fd_sc_mcu7t5v0__fillcap_16
XFILLER_39_419 vccd1 vssd1 gf180mcu_fd_sc_mcu7t5v0__fill_1
XFILLER_34_179 vccd1 vssd1 gf180mcu_fd_sc_mcu7t5v0__fillcap_64
XFILLER_15_360 vccd1 vssd1 gf180mcu_fd_sc_mcu7t5v0__fillcap_32
XFILLER_40_105 vccd1 vssd1 gf180mcu_fd_sc_mcu7t5v0__fill_1
XFILLER_13_308 vccd1 vssd1 gf180mcu_fd_sc_mcu7t5v0__fill_1
XFILLER_15_69 vccd1 vssd1 gf180mcu_fd_sc_mcu7t5v0__fill_2
Xoutput24 net24 data_out[27] vccd1 vssd1 gf180mcu_fd_sc_mcu7t5v0__clkbuf_4
Xoutput13 net13 data_out[17] vccd1 vssd1 gf180mcu_fd_sc_mcu7t5v0__clkbuf_4
XFILLER_0_201 vccd1 vssd1 gf180mcu_fd_sc_mcu7t5v0__fillcap_4
XFILLER_0_212 vccd1 vssd1 gf180mcu_fd_sc_mcu7t5v0__fill_2
Xoutput35 net35 data_out[8] vccd1 vssd1 gf180mcu_fd_sc_mcu7t5v0__clkbuf_4
XFILLER_0_278 vccd1 vssd1 gf180mcu_fd_sc_mcu7t5v0__fill_2
XFILLER_16_179 vccd1 vssd1 gf180mcu_fd_sc_mcu7t5v0__fillcap_32
XFILLER_8_389 vccd1 vssd1 gf180mcu_fd_sc_mcu7t5v0__fill_1
XTAP_138 vccd1 vssd1 gf180mcu_fd_sc_mcu7t5v0__filltie
XTAP_127 vccd1 vssd1 gf180mcu_fd_sc_mcu7t5v0__filltie
XTAP_116 vccd1 vssd1 gf180mcu_fd_sc_mcu7t5v0__filltie
XTAP_149 vccd1 vssd1 gf180mcu_fd_sc_mcu7t5v0__filltie
XFILLER_50_403 vccd1 vssd1 gf180mcu_fd_sc_mcu7t5v0__fill_2
XFILLER_22_105 vccd1 vssd1 gf180mcu_fd_sc_mcu7t5v0__fill_1
XFILLER_45_208 vccd1 vssd1 gf180mcu_fd_sc_mcu7t5v0__fillcap_4
XFILLER_41_403 vccd1 vssd1 gf180mcu_fd_sc_mcu7t5v0__fill_2
XFILLER_26_400 vccd1 vssd1 gf180mcu_fd_sc_mcu7t5v0__fill_1
XFILLER_42_34 vccd1 vssd1 gf180mcu_fd_sc_mcu7t5v0__fill_1
XFILLER_17_400 vccd1 vssd1 gf180mcu_fd_sc_mcu7t5v0__fill_1
XFILLER_32_403 vccd1 vssd1 gf180mcu_fd_sc_mcu7t5v0__fill_2
XFILLER_12_160 vccd1 vssd1 gf180mcu_fd_sc_mcu7t5v0__fill_2
XFILLER_8_164 vccd1 vssd1 gf180mcu_fd_sc_mcu7t5v0__fill_2
XFILLER_4_392 vccd1 vssd1 gf180mcu_fd_sc_mcu7t5v0__fillcap_8
XANTENNA_input1_I mosi vccd1 vssd1 gf180mcu_fd_sc_mcu7t5v0__antenna
XFILLER_27_208 vccd1 vssd1 gf180mcu_fd_sc_mcu7t5v0__fillcap_4
XFILLER_10_108 vccd1 vssd1 gf180mcu_fd_sc_mcu7t5v0__fillcap_32
XFILLER_12_37 vccd1 vssd1 gf180mcu_fd_sc_mcu7t5v0__fillcap_64
XFILLER_2_318 vccd1 vssd1 gf180mcu_fd_sc_mcu7t5v0__fill_1
XFILLER_53_66 vccd1 vssd1 gf180mcu_fd_sc_mcu7t5v0__fillcap_4
XFILLER_17_263 vccd1 vssd1 gf180mcu_fd_sc_mcu7t5v0__fill_2
XFILLER_17_296 vccd1 vssd1 gf180mcu_fd_sc_mcu7t5v0__fill_2
XFILLER_4_93 vccd1 vssd1 gf180mcu_fd_sc_mcu7t5v0__fillcap_4
XFILLER_48_33 vccd1 vssd1 gf180mcu_fd_sc_mcu7t5v0__fill_2
XFILLER_54_380 vccd1 vssd1 gf180mcu_fd_sc_mcu7t5v0__fill_2
XFILLER_46_314 vccd1 vssd1 gf180mcu_fd_sc_mcu7t5v0__fillcap_4
X_186_ _021_ clknet_2_1__leaf_clock net18 vccd1 vssd1 gf180mcu_fd_sc_mcu7t5v0__dffq_1
XFILLER_49_141 vccd1 vssd1 gf180mcu_fd_sc_mcu7t5v0__fill_1
XFILLER_20_247 vccd1 vssd1 gf180mcu_fd_sc_mcu7t5v0__fill_1
XFILLER_20_269 vccd1 vssd1 gf180mcu_fd_sc_mcu7t5v0__fillcap_16
XFILLER_20_258 vccd1 vssd1 gf180mcu_fd_sc_mcu7t5v0__fillcap_4
XFILLER_28_314 vccd1 vssd1 gf180mcu_fd_sc_mcu7t5v0__fillcap_4
XFILLER_51_350 vccd1 vssd1 gf180mcu_fd_sc_mcu7t5v0__fillcap_4
XANTENNA__169__CLK clknet_2_2__leaf_clock vccd1 vssd1 gf180mcu_fd_sc_mcu7t5v0__antenna
XFILLER_50_34 vccd1 vssd1 gf180mcu_fd_sc_mcu7t5v0__fill_1
XFILLER_3_413 vccd1 vssd1 gf180mcu_fd_sc_mcu7t5v0__fillcap_4
X_169_ _004_ clknet_2_2__leaf_clock net31 vccd1 vssd1 gf180mcu_fd_sc_mcu7t5v0__dffq_1
XFILLER_10_280 vccd1 vssd1 gf180mcu_fd_sc_mcu7t5v0__fill_2
XFILLER_27_2 vccd1 vssd1 gf180mcu_fd_sc_mcu7t5v0__fillcap_64
XFILLER_37_144 vccd1 vssd1 gf180mcu_fd_sc_mcu7t5v0__fillcap_64
XFILLER_18_380 vccd1 vssd1 gf180mcu_fd_sc_mcu7t5v0__fillcap_8
XFILLER_20_37 vccd1 vssd1 gf180mcu_fd_sc_mcu7t5v0__fillcap_64
XFILLER_16_328 vccd1 vssd1 gf180mcu_fd_sc_mcu7t5v0__fill_2
XFILLER_24_383 vccd1 vssd1 gf180mcu_fd_sc_mcu7t5v0__fillcap_4
XTAP_309 vccd1 vssd1 gf180mcu_fd_sc_mcu7t5v0__filltie
XFILLER_3_298 vccd1 vssd1 gf180mcu_fd_sc_mcu7t5v0__fill_1
XFILLER_19_144 vccd1 vssd1 gf180mcu_fd_sc_mcu7t5v0__fillcap_64
XFILLER_22_309 vccd1 vssd1 gf180mcu_fd_sc_mcu7t5v0__fill_2
Xoutput25 net25 data_out[28] vccd1 vssd1 gf180mcu_fd_sc_mcu7t5v0__clkbuf_4
Xoutput14 net14 data_out[18] vccd1 vssd1 gf180mcu_fd_sc_mcu7t5v0__clkbuf_4
XFILLER_31_69 vccd1 vssd1 gf180mcu_fd_sc_mcu7t5v0__fill_2
Xoutput36 net36 data_out[9] vccd1 vssd1 gf180mcu_fd_sc_mcu7t5v0__clkbuf_4
XFILLER_12_342 vccd1 vssd1 gf180mcu_fd_sc_mcu7t5v0__fillcap_4
XFILLER_8_313 vccd1 vssd1 gf180mcu_fd_sc_mcu7t5v0__fillcap_4
XFILLER_12_364 vccd1 vssd1 gf180mcu_fd_sc_mcu7t5v0__fillcap_16
XTAP_139 vccd1 vssd1 gf180mcu_fd_sc_mcu7t5v0__filltie
XTAP_128 vccd1 vssd1 gf180mcu_fd_sc_mcu7t5v0__filltie
XTAP_117 vccd1 vssd1 gf180mcu_fd_sc_mcu7t5v0__filltie
XFILLER_54_209 vccd1 vssd1 gf180mcu_fd_sc_mcu7t5v0__fill_1
XFILLER_47_283 vccd1 vssd1 gf180mcu_fd_sc_mcu7t5v0__fill_1
XPHY_0 vccd1 vssd1 gf180mcu_fd_sc_mcu7t5v0__endcap
XFILLER_30_172 vccd1 vssd1 gf180mcu_fd_sc_mcu7t5v0__fillcap_4
XANTENNA__123__S _039_ vccd1 vssd1 gf180mcu_fd_sc_mcu7t5v0__antenna
XFILLER_38_250 vccd1 vssd1 gf180mcu_fd_sc_mcu7t5v0__fillcap_64
XFILLER_53_286 vccd1 vssd1 gf180mcu_fd_sc_mcu7t5v0__fillcap_64
XFILLER_5_338 vccd1 vssd1 gf180mcu_fd_sc_mcu7t5v0__fillcap_8
XFILLER_29_283 vccd1 vssd1 gf180mcu_fd_sc_mcu7t5v0__fill_1
XFILLER_12_172 vccd1 vssd1 gf180mcu_fd_sc_mcu7t5v0__fillcap_4
XFILLER_4_371 vccd1 vssd1 gf180mcu_fd_sc_mcu7t5v0__fill_2
XFILLER_8_176 vccd1 vssd1 gf180mcu_fd_sc_mcu7t5v0__fill_1
XFILLER_35_286 vccd1 vssd1 gf180mcu_fd_sc_mcu7t5v0__fillcap_64
XFILLER_41_212 vccd1 vssd1 gf180mcu_fd_sc_mcu7t5v0__fill_1
XFILLER_49_389 vccd1 vssd1 gf180mcu_fd_sc_mcu7t5v0__fillcap_16
XFILLER_1_352 vccd1 vssd1 gf180mcu_fd_sc_mcu7t5v0__fill_2
XFILLER_17_286 vccd1 vssd1 gf180mcu_fd_sc_mcu7t5v0__fillcap_8
XFILLER_17_275 vccd1 vssd1 gf180mcu_fd_sc_mcu7t5v0__fillcap_8
XFILLER_23_212 vccd1 vssd1 gf180mcu_fd_sc_mcu7t5v0__fill_1
XFILLER_2_105 vccd1 vssd1 gf180mcu_fd_sc_mcu7t5v0__fill_1
XANTENNA_output33_I net33 vccd1 vssd1 gf180mcu_fd_sc_mcu7t5v0__antenna
XFILLER_6_400 vccd1 vssd1 gf180mcu_fd_sc_mcu7t5v0__fill_1
X_185_ _020_ clknet_2_1__leaf_clock net17 vccd1 vssd1 gf180mcu_fd_sc_mcu7t5v0__dffq_1
XFILLER_13_70 vccd1 vssd1 gf180mcu_fd_sc_mcu7t5v0__fill_1
XFILLER_1_160 vccd1 vssd1 gf180mcu_fd_sc_mcu7t5v0__fillcap_8
XFILLER_52_318 vccd1 vssd1 gf180mcu_fd_sc_mcu7t5v0__fill_1
XFILLER_9_282 vccd1 vssd1 gf180mcu_fd_sc_mcu7t5v0__fill_2
XFILLER_36_392 vccd1 vssd1 gf180mcu_fd_sc_mcu7t5v0__fillcap_16
XFILLER_18_37 vccd1 vssd1 gf180mcu_fd_sc_mcu7t5v0__fillcap_64
XFILLER_28_337 vccd1 vssd1 gf180mcu_fd_sc_mcu7t5v0__fillcap_8
XFILLER_11_215 vccd1 vssd1 gf180mcu_fd_sc_mcu7t5v0__fillcap_16
XFILLER_46_101 vccd1 vssd1 gf180mcu_fd_sc_mcu7t5v0__fillcap_4
XFILLER_19_326 vccd1 vssd1 gf180mcu_fd_sc_mcu7t5v0__fill_2
XFILLER_34_318 vccd1 vssd1 gf180mcu_fd_sc_mcu7t5v0__fill_1
X_168_ _003_ clknet_2_2__leaf_clock net30 vccd1 vssd1 gf180mcu_fd_sc_mcu7t5v0__dffq_1
X_099_ net33 net34 _069_ _073_ vccd1 vssd1 gf180mcu_fd_sc_mcu7t5v0__mux2_2
XFILLER_1_73 vccd1 vssd1 gf180mcu_fd_sc_mcu7t5v0__fillcap_64
XFILLER_18_392 vccd1 vssd1 gf180mcu_fd_sc_mcu7t5v0__fillcap_16
XFILLER_33_340 vccd1 vssd1 gf180mcu_fd_sc_mcu7t5v0__fill_2
XFILLER_28_101 vccd1 vssd1 gf180mcu_fd_sc_mcu7t5v0__fillcap_4
XFILLER_43_137 vccd1 vssd1 gf180mcu_fd_sc_mcu7t5v0__fillcap_4
XFILLER_16_318 vccd1 vssd1 gf180mcu_fd_sc_mcu7t5v0__fill_1
XFILLER_3_277 vccd1 vssd1 gf180mcu_fd_sc_mcu7t5v0__fillcap_4
XFILLER_30_321 vccd1 vssd1 gf180mcu_fd_sc_mcu7t5v0__fillcap_8
XFILLER_15_340 vccd1 vssd1 gf180mcu_fd_sc_mcu7t5v0__fillcap_4
XANTENNA__159__CLK clknet_2_1__leaf_clock vccd1 vssd1 gf180mcu_fd_sc_mcu7t5v0__antenna
XFILLER_25_137 vccd1 vssd1 gf180mcu_fd_sc_mcu7t5v0__fillcap_4