*SPEF "ieee 1481-1999"
*DESIGN "clock_source_sel"
*DATE "11:11:11 Fri 11 11, 1111"
*VENDOR "OpenRCX"
*PROGRAM "Parallel Extraction"
*VERSION "1.0"
*DESIGN_FLOW "NAME_SCOPE LOCAL" "PIN_CAP NONE"
*DIVIDER /
*DELIMITER :
*BUS_DELIMITER []
*T_UNIT 1 NS
*C_UNIT 1 PF
*R_UNIT 1 OHM
*L_UNIT 1 HENRY

*NAME_MAP
*1 clock_out_a
*2 net3
*3 net4
*4 core_clock
*5 io_clock
*6 la_oenb
*9 _0_
*10 clknet_0_core_clock
*11 clknet_1_0__leaf_core_clock
*12 clknet_1_1__leaf_core_clock
*13 net1
*14 net2
*15 sel_reg
*16 ANTENNA__1__I1
*17 ANTENNA__3__D
*18 ANTENNA_clkbuf_0_core_clock_I
*19 ANTENNA_clkbuf_1_0__f_core_clock_I
*20 ANTENNA_clkbuf_1_1__f_core_clock_I
*21 ANTENNA_input1_I
*22 ANTENNA_output2_I
*23 FILLER_0_104
*24 FILLER_0_107
*25 FILLER_0_139
*26 FILLER_0_142
*27 FILLER_0_174
*28 FILLER_0_177
*29 FILLER_0_2
*30 FILLER_0_209
*31 FILLER_0_212
*32 FILLER_0_244
*33 FILLER_0_247
*34 FILLER_0_279
*35 FILLER_0_282
*36 FILLER_0_314
*37 FILLER_0_317
*38 FILLER_0_321
*39 FILLER_0_329
*40 FILLER_0_34
*41 FILLER_0_345
*42 FILLER_0_349
*43 FILLER_0_352
*44 FILLER_0_37
*45 FILLER_0_384
*46 FILLER_0_387
*47 FILLER_0_419
*48 FILLER_0_69
*49 FILLER_0_72
*50 FILLER_10_101
*51 FILLER_10_105
*52 FILLER_10_108
*53 FILLER_10_172
*54 FILLER_10_176
*55 FILLER_10_179
*56 FILLER_10_195
*57 FILLER_10_2
*58 FILLER_10_203
*59 FILLER_10_205
*60 FILLER_10_221
*61 FILLER_10_225
*62 FILLER_10_241
*63 FILLER_10_245
*64 FILLER_10_247
*65 FILLER_10_250
*66 FILLER_10_314
*67 FILLER_10_318
*68 FILLER_10_321
*69 FILLER_10_34
*70 FILLER_10_37
*71 FILLER_10_385
*72 FILLER_10_389
*73 FILLER_10_392
*74 FILLER_10_408
*75 FILLER_10_416
*76 FILLER_11_137
*77 FILLER_11_141
*78 FILLER_11_144
*79 FILLER_11_2
*80 FILLER_11_208
*81 FILLER_11_212
*82 FILLER_11_215
*83 FILLER_11_223
*84 FILLER_11_225
*85 FILLER_11_276
*86 FILLER_11_280
*87 FILLER_11_286
*88 FILLER_11_350
*89 FILLER_11_354
*90 FILLER_11_357
*91 FILLER_11_389
*92 FILLER_11_405
*93 FILLER_11_413
*94 FILLER_11_417
*95 FILLER_11_419
*96 FILLER_11_66
*97 FILLER_11_70
*98 FILLER_11_73
*99 FILLER_12_101
*100 FILLER_12_105
*101 FILLER_12_108
*102 FILLER_12_172
*103 FILLER_12_176
*104 FILLER_12_179
*105 FILLER_12_2
*106 FILLER_12_243
*107 FILLER_12_247
*108 FILLER_12_250
*109 FILLER_12_314
*110 FILLER_12_318
*111 FILLER_12_321
*112 FILLER_12_34
*113 FILLER_12_37
*114 FILLER_12_385
*115 FILLER_12_389
*116 FILLER_12_392
*117 FILLER_12_408
*118 FILLER_12_416
*119 FILLER_13_137
*120 FILLER_13_141
*121 FILLER_13_144
*122 FILLER_13_2
*123 FILLER_13_208
*124 FILLER_13_212
*125 FILLER_13_215
*126 FILLER_13_279
*127 FILLER_13_283
*128 FILLER_13_286
*129 FILLER_13_350
*130 FILLER_13_354
*131 FILLER_13_357
*132 FILLER_13_389
*133 FILLER_13_405
*134 FILLER_13_413
*135 FILLER_13_417
*136 FILLER_13_419
*137 FILLER_13_66
*138 FILLER_13_70
*139 FILLER_13_73
*140 FILLER_14_101
*141 FILLER_14_105
*142 FILLER_14_108
*143 FILLER_14_172
*144 FILLER_14_176
*145 FILLER_14_179
*146 FILLER_14_2
*147 FILLER_14_243
*148 FILLER_14_247
*149 FILLER_14_250
*150 FILLER_14_314
*151 FILLER_14_318
*152 FILLER_14_321
*153 FILLER_14_34
*154 FILLER_14_37
*155 FILLER_14_385
*156 FILLER_14_389
*157 FILLER_14_392
*158 FILLER_14_408
*159 FILLER_14_416
*160 FILLER_15_137
*161 FILLER_15_141
*162 FILLER_15_144
*163 FILLER_15_2
*164 FILLER_15_208
*165 FILLER_15_212
*166 FILLER_15_215
*167 FILLER_15_279
*168 FILLER_15_283
*169 FILLER_15_286
*170 FILLER_15_350
*171 FILLER_15_354
*172 FILLER_15_357
*173 FILLER_15_389
*174 FILLER_15_405
*175 FILLER_15_413
*176 FILLER_15_417
*177 FILLER_15_419
*178 FILLER_15_66
*179 FILLER_15_70
*180 FILLER_15_73
*181 FILLER_16_101
*182 FILLER_16_105
*183 FILLER_16_108
*184 FILLER_16_172
*185 FILLER_16_176
*186 FILLER_16_179
*187 FILLER_16_2
*188 FILLER_16_243
*189 FILLER_16_247
*190 FILLER_16_250
*191 FILLER_16_314
*192 FILLER_16_318
*193 FILLER_16_321
*194 FILLER_16_34
*195 FILLER_16_37
*196 FILLER_16_385
*197 FILLER_16_389
*198 FILLER_16_392
*199 FILLER_16_408
*200 FILLER_16_416
*201 FILLER_17_137
*202 FILLER_17_141
*203 FILLER_17_144
*204 FILLER_17_2
*205 FILLER_17_208
*206 FILLER_17_212
*207 FILLER_17_215
*208 FILLER_17_279
*209 FILLER_17_283
*210 FILLER_17_286
*211 FILLER_17_350
*212 FILLER_17_354
*213 FILLER_17_357
*214 FILLER_17_389
*215 FILLER_17_405
*216 FILLER_17_413
*217 FILLER_17_417
*218 FILLER_17_419
*219 FILLER_17_66
*220 FILLER_17_70
*221 FILLER_17_73
*222 FILLER_18_101
*223 FILLER_18_105
*224 FILLER_18_108
*225 FILLER_18_172
*226 FILLER_18_176
*227 FILLER_18_179
*228 FILLER_18_2
*229 FILLER_18_243
*230 FILLER_18_247
*231 FILLER_18_250
*232 FILLER_18_314
*233 FILLER_18_318
*234 FILLER_18_321
*235 FILLER_18_34
*236 FILLER_18_37
*237 FILLER_18_385
*238 FILLER_18_389
*239 FILLER_18_392
*240 FILLER_18_408
*241 FILLER_18_416
*242 FILLER_19_137
*243 FILLER_19_141
*244 FILLER_19_144
*245 FILLER_19_2
*246 FILLER_19_208
*247 FILLER_19_212
*248 FILLER_19_215
*249 FILLER_19_279
*250 FILLER_19_283
*251 FILLER_19_286
*252 FILLER_19_350
*253 FILLER_19_354
*254 FILLER_19_357
*255 FILLER_19_389
*256 FILLER_19_405
*257 FILLER_19_413
*258 FILLER_19_417
*259 FILLER_19_419
*260 FILLER_19_66
*261 FILLER_19_70
*262 FILLER_19_73
*263 FILLER_1_137
*264 FILLER_1_141
*265 FILLER_1_144
*266 FILLER_1_2
*267 FILLER_1_208
*268 FILLER_1_212
*269 FILLER_1_215
*270 FILLER_1_279
*271 FILLER_1_283
*272 FILLER_1_286
*273 FILLER_1_350
*274 FILLER_1_354
*275 FILLER_1_357
*276 FILLER_1_389
*277 FILLER_1_405
*278 FILLER_1_413
*279 FILLER_1_417
*280 FILLER_1_419
*281 FILLER_1_66
*282 FILLER_1_70
*283 FILLER_1_73
*284 FILLER_20_101
*285 FILLER_20_105
*286 FILLER_20_108
*287 FILLER_20_172
*288 FILLER_20_176
*289 FILLER_20_179
*290 FILLER_20_2
*291 FILLER_20_243
*292 FILLER_20_247
*293 FILLER_20_250
*294 FILLER_20_314
*295 FILLER_20_318
*296 FILLER_20_321
*297 FILLER_20_34
*298 FILLER_20_37
*299 FILLER_20_385
*300 FILLER_20_389
*301 FILLER_20_392
*302 FILLER_20_408
*303 FILLER_20_416
*304 FILLER_21_137
*305 FILLER_21_141
*306 FILLER_21_144
*307 FILLER_21_2
*308 FILLER_21_208
*309 FILLER_21_212
*310 FILLER_21_215
*311 FILLER_21_279
*312 FILLER_21_283
*313 FILLER_21_286
*314 FILLER_21_350
*315 FILLER_21_354
*316 FILLER_21_357
*317 FILLER_21_389
*318 FILLER_21_405
*319 FILLER_21_413
*320 FILLER_21_417
*321 FILLER_21_419
*322 FILLER_21_66
*323 FILLER_21_70
*324 FILLER_21_73
*325 FILLER_22_101
*326 FILLER_22_105
*327 FILLER_22_108
*328 FILLER_22_172
*329 FILLER_22_176
*330 FILLER_22_179
*331 FILLER_22_2
*332 FILLER_22_243
*333 FILLER_22_247
*334 FILLER_22_250
*335 FILLER_22_314
*336 FILLER_22_318
*337 FILLER_22_321
*338 FILLER_22_34
*339 FILLER_22_37
*340 FILLER_22_385
*341 FILLER_22_389
*342 FILLER_22_392
*343 FILLER_22_408
*344 FILLER_22_416
*345 FILLER_23_137
*346 FILLER_23_141
*347 FILLER_23_144
*348 FILLER_23_2
*349 FILLER_23_208
*350 FILLER_23_212
*351 FILLER_23_215
*352 FILLER_23_279
*353 FILLER_23_283
*354 FILLER_23_286
*355 FILLER_23_350
*356 FILLER_23_354
*357 FILLER_23_357
*358 FILLER_23_389
*359 FILLER_23_405
*360 FILLER_23_413
*361 FILLER_23_417
*362 FILLER_23_419
*363 FILLER_23_66
*364 FILLER_23_70
*365 FILLER_23_73
*366 FILLER_24_101
*367 FILLER_24_105
*368 FILLER_24_108
*369 FILLER_24_172
*370 FILLER_24_176
*371 FILLER_24_179
*372 FILLER_24_2
*373 FILLER_24_243
*374 FILLER_24_247
*375 FILLER_24_250
*376 FILLER_24_314
*377 FILLER_24_318
*378 FILLER_24_321
*379 FILLER_24_34
*380 FILLER_24_37
*381 FILLER_24_385
*382 FILLER_24_389
*383 FILLER_24_392
*384 FILLER_24_408
*385 FILLER_24_416
*386 FILLER_25_137
*387 FILLER_25_141
*388 FILLER_25_144
*389 FILLER_25_2
*390 FILLER_25_208
*391 FILLER_25_212
*392 FILLER_25_215
*393 FILLER_25_279
*394 FILLER_25_283
*395 FILLER_25_286
*396 FILLER_25_350
*397 FILLER_25_354
*398 FILLER_25_357
*399 FILLER_25_389
*400 FILLER_25_405
*401 FILLER_25_413
*402 FILLER_25_417
*403 FILLER_25_419
*404 FILLER_25_66
*405 FILLER_25_70
*406 FILLER_25_73
*407 FILLER_26_101
*408 FILLER_26_105
*409 FILLER_26_108
*410 FILLER_26_172
*411 FILLER_26_176
*412 FILLER_26_179
*413 FILLER_26_2
*414 FILLER_26_243
*415 FILLER_26_247
*416 FILLER_26_250
*417 FILLER_26_314
*418 FILLER_26_318
*419 FILLER_26_321
*420 FILLER_26_34
*421 FILLER_26_37
*422 FILLER_26_385
*423 FILLER_26_389
*424 FILLER_26_392
*425 FILLER_26_408
*426 FILLER_26_416
*427 FILLER_27_137
*428 FILLER_27_141
*429 FILLER_27_144
*430 FILLER_27_2
*431 FILLER_27_208
*432 FILLER_27_212
*433 FILLER_27_215
*434 FILLER_27_279
*435 FILLER_27_283
*436 FILLER_27_286
*437 FILLER_27_350
*438 FILLER_27_354
*439 FILLER_27_357
*440 FILLER_27_389
*441 FILLER_27_405
*442 FILLER_27_413
*443 FILLER_27_417
*444 FILLER_27_419
*445 FILLER_27_66
*446 FILLER_27_70
*447 FILLER_27_73
*448 FILLER_28_101
*449 FILLER_28_105
*450 FILLER_28_108
*451 FILLER_28_172
*452 FILLER_28_176
*453 FILLER_28_179
*454 FILLER_28_2
*455 FILLER_28_23
*456 FILLER_28_243
*457 FILLER_28_247
*458 FILLER_28_250
*459 FILLER_28_31
*460 FILLER_28_314
*461 FILLER_28_318
*462 FILLER_28_321
*463 FILLER_28_37
*464 FILLER_28_385
*465 FILLER_28_389
*466 FILLER_28_392
*467 FILLER_28_408
*468 FILLER_28_416
*469 FILLER_28_7
*470 FILLER_29_137
*471 FILLER_29_141
*472 FILLER_29_144
*473 FILLER_29_2
*474 FILLER_29_208
*475 FILLER_29_212
*476 FILLER_29_215
*477 FILLER_29_279
*478 FILLER_29_283
*479 FILLER_29_286
*480 FILLER_29_350
*481 FILLER_29_354
*482 FILLER_29_357
*483 FILLER_29_389
*484 FILLER_29_405
*485 FILLER_29_413
*486 FILLER_29_417
*487 FILLER_29_419
*488 FILLER_29_66
*489 FILLER_29_70
*490 FILLER_29_73
*491 FILLER_2_101
*492 FILLER_2_105
*493 FILLER_2_108
*494 FILLER_2_172
*495 FILLER_2_176
*496 FILLER_2_179
*497 FILLER_2_2
*498 FILLER_2_243
*499 FILLER_2_247
*500 FILLER_2_250
*501 FILLER_2_314
*502 FILLER_2_318
*503 FILLER_2_321
*504 FILLER_2_34
*505 FILLER_2_37
*506 FILLER_2_385
*507 FILLER_2_389
*508 FILLER_2_392
*509 FILLER_2_408
*510 FILLER_2_416
*511 FILLER_30_101
*512 FILLER_30_105
*513 FILLER_30_108
*514 FILLER_30_172
*515 FILLER_30_176
*516 FILLER_30_179
*517 FILLER_30_2
*518 FILLER_30_243
*519 FILLER_30_247
*520 FILLER_30_250
*521 FILLER_30_314
*522 FILLER_30_318
*523 FILLER_30_321
*524 FILLER_30_34
*525 FILLER_30_37
*526 FILLER_30_385
*527 FILLER_30_389
*528 FILLER_30_392
*529 FILLER_30_408
*530 FILLER_30_416
*531 FILLER_31_137
*532 FILLER_31_141
*533 FILLER_31_144
*534 FILLER_31_2
*535 FILLER_31_208
*536 FILLER_31_212
*537 FILLER_31_215
*538 FILLER_31_279
*539 FILLER_31_283
*540 FILLER_31_286
*541 FILLER_31_350
*542 FILLER_31_354
*543 FILLER_31_357
*544 FILLER_31_389
*545 FILLER_31_405
*546 FILLER_31_413
*547 FILLER_31_417
*548 FILLER_31_419
*549 FILLER_31_66
*550 FILLER_31_70
*551 FILLER_31_73
*552 FILLER_32_101
*553 FILLER_32_105
*554 FILLER_32_108
*555 FILLER_32_172
*556 FILLER_32_176
*557 FILLER_32_179
*558 FILLER_32_2
*559 FILLER_32_243
*560 FILLER_32_247
*561 FILLER_32_250
*562 FILLER_32_314
*563 FILLER_32_318
*564 FILLER_32_321
*565 FILLER_32_34
*566 FILLER_32_37
*567 FILLER_32_385
*568 FILLER_32_389
*569 FILLER_32_392
*570 FILLER_32_408
*571 FILLER_32_416
*572 FILLER_33_137
*573 FILLER_33_141
*574 FILLER_33_144
*575 FILLER_33_2
*576 FILLER_33_208
*577 FILLER_33_212
*578 FILLER_33_215
*579 FILLER_33_279
*580 FILLER_33_283
*581 FILLER_33_286
*582 FILLER_33_350
*583 FILLER_33_354
*584 FILLER_33_357
*585 FILLER_33_389
*586 FILLER_33_405
*587 FILLER_33_413
*588 FILLER_33_417
*589 FILLER_33_419
*590 FILLER_33_66
*591 FILLER_33_70
*592 FILLER_33_73
*593 FILLER_34_101
*594 FILLER_34_105
*595 FILLER_34_108
*596 FILLER_34_172
*597 FILLER_34_176
*598 FILLER_34_179
*599 FILLER_34_2
*600 FILLER_34_243
*601 FILLER_34_247
*602 FILLER_34_250
*603 FILLER_34_314
*604 FILLER_34_318
*605 FILLER_34_321
*606 FILLER_34_34
*607 FILLER_34_37
*608 FILLER_34_385
*609 FILLER_34_389
*610 FILLER_34_392
*611 FILLER_34_408
*612 FILLER_34_416
*613 FILLER_35_137
*614 FILLER_35_141
*615 FILLER_35_144
*616 FILLER_35_2
*617 FILLER_35_208
*618 FILLER_35_212
*619 FILLER_35_215
*620 FILLER_35_279
*621 FILLER_35_283
*622 FILLER_35_286
*623 FILLER_35_350
*624 FILLER_35_354
*625 FILLER_35_357
*626 FILLER_35_389
*627 FILLER_35_405
*628 FILLER_35_413
*629 FILLER_35_417
*630 FILLER_35_419
*631 FILLER_35_66
*632 FILLER_35_70
*633 FILLER_35_73
*634 FILLER_36_101
*635 FILLER_36_105
*636 FILLER_36_108
*637 FILLER_36_172
*638 FILLER_36_176
*639 FILLER_36_179
*640 FILLER_36_2
*641 FILLER_36_243
*642 FILLER_36_247
*643 FILLER_36_250
*644 FILLER_36_314
*645 FILLER_36_318
*646 FILLER_36_321
*647 FILLER_36_34
*648 FILLER_36_37
*649 FILLER_36_385
*650 FILLER_36_389
*651 FILLER_36_392
*652 FILLER_36_408
*653 FILLER_36_416
*654 FILLER_37_137
*655 FILLER_37_141
*656 FILLER_37_144
*657 FILLER_37_2
*658 FILLER_37_208
*659 FILLER_37_212
*660 FILLER_37_215
*661 FILLER_37_279
*662 FILLER_37_283
*663 FILLER_37_286
*664 FILLER_37_350
*665 FILLER_37_354
*666 FILLER_37_357
*667 FILLER_37_389
*668 FILLER_37_405
*669 FILLER_37_413
*670 FILLER_37_417
*671 FILLER_37_419
*672 FILLER_37_66
*673 FILLER_37_70
*674 FILLER_37_73
*675 FILLER_38_101
*676 FILLER_38_105
*677 FILLER_38_108
*678 FILLER_38_172
*679 FILLER_38_176
*680 FILLER_38_179
*681 FILLER_38_2
*682 FILLER_38_243
*683 FILLER_38_247
*684 FILLER_38_250
*685 FILLER_38_314
*686 FILLER_38_318
*687 FILLER_38_321
*688 FILLER_38_34
*689 FILLER_38_37
*690 FILLER_38_385
*691 FILLER_38_389
*692 FILLER_38_392
*693 FILLER_38_408
*694 FILLER_38_416
*695 FILLER_39_137
*696 FILLER_39_141
*697 FILLER_39_144
*698 FILLER_39_2
*699 FILLER_39_208
*700 FILLER_39_212
*701 FILLER_39_215
*702 FILLER_39_279
*703 FILLER_39_283
*704 FILLER_39_286
*705 FILLER_39_350
*706 FILLER_39_354
*707 FILLER_39_357
*708 FILLER_39_389
*709 FILLER_39_405
*710 FILLER_39_413
*711 FILLER_39_417
*712 FILLER_39_419
*713 FILLER_39_66
*714 FILLER_39_70
*715 FILLER_39_73
*716 FILLER_3_137
*717 FILLER_3_141
*718 FILLER_3_144
*719 FILLER_3_2
*720 FILLER_3_208
*721 FILLER_3_212
*722 FILLER_3_215
*723 FILLER_3_279
*724 FILLER_3_283
*725 FILLER_3_286
*726 FILLER_3_350
*727 FILLER_3_354
*728 FILLER_3_357
*729 FILLER_3_389
*730 FILLER_3_405
*731 FILLER_3_413
*732 FILLER_3_417
*733 FILLER_3_419
*734 FILLER_3_66
*735 FILLER_3_70
*736 FILLER_3_73
*737 FILLER_40_101
*738 FILLER_40_105
*739 FILLER_40_108
*740 FILLER_40_172
*741 FILLER_40_176
*742 FILLER_40_179
*743 FILLER_40_2
*744 FILLER_40_243
*745 FILLER_40_247
*746 FILLER_40_250
*747 FILLER_40_314
*748 FILLER_40_318
*749 FILLER_40_321
*750 FILLER_40_34
*751 FILLER_40_37
*752 FILLER_40_385
*753 FILLER_40_389
*754 FILLER_40_392
*755 FILLER_40_408
*756 FILLER_40_416
*757 FILLER_41_137
*758 FILLER_41_141
*759 FILLER_41_144
*760 FILLER_41_2
*761 FILLER_41_208
*762 FILLER_41_212
*763 FILLER_41_215
*764 FILLER_41_279
*765 FILLER_41_283
*766 FILLER_41_286
*767 FILLER_41_350
*768 FILLER_41_354
*769 FILLER_41_357
*770 FILLER_41_389
*771 FILLER_41_405
*772 FILLER_41_413
*773 FILLER_41_417
*774 FILLER_41_419
*775 FILLER_41_66
*776 FILLER_41_70
*777 FILLER_41_73
*778 FILLER_42_101
*779 FILLER_42_105
*780 FILLER_42_108
*781 FILLER_42_172
*782 FILLER_42_176
*783 FILLER_42_179
*784 FILLER_42_2
*785 FILLER_42_243
*786 FILLER_42_247
*787 FILLER_42_250
*788 FILLER_42_314
*789 FILLER_42_318
*790 FILLER_42_321
*791 FILLER_42_34
*792 FILLER_42_37
*793 FILLER_42_385
*794 FILLER_42_389
*795 FILLER_42_392
*796 FILLER_42_408
*797 FILLER_42_416
*798 FILLER_43_137
*799 FILLER_43_141
*800 FILLER_43_144
*801 FILLER_43_2
*802 FILLER_43_208
*803 FILLER_43_212
*804 FILLER_43_215
*805 FILLER_43_279
*806 FILLER_43_283
*807 FILLER_43_286
*808 FILLER_43_350
*809 FILLER_43_354
*810 FILLER_43_357
*811 FILLER_43_389
*812 FILLER_43_405
*813 FILLER_43_413
*814 FILLER_43_417
*815 FILLER_43_419
*816 FILLER_43_66
*817 FILLER_43_70
*818 FILLER_43_73
*819 FILLER_44_101
*820 FILLER_44_105
*821 FILLER_44_108
*822 FILLER_44_172
*823 FILLER_44_176
*824 FILLER_44_179
*825 FILLER_44_2
*826 FILLER_44_243
*827 FILLER_44_247
*828 FILLER_44_250
*829 FILLER_44_314
*830 FILLER_44_318
*831 FILLER_44_321
*832 FILLER_44_34
*833 FILLER_44_37
*834 FILLER_44_385
*835 FILLER_44_389
*836 FILLER_44_392
*837 FILLER_44_408
*838 FILLER_44_416
*839 FILLER_45_137
*840 FILLER_45_141
*841 FILLER_45_144
*842 FILLER_45_2
*843 FILLER_45_208
*844 FILLER_45_212
*845 FILLER_45_215
*846 FILLER_45_279
*847 FILLER_45_283
*848 FILLER_45_286
*849 FILLER_45_350
*850 FILLER_45_354
*851 FILLER_45_357
*852 FILLER_45_389
*853 FILLER_45_405
*854 FILLER_45_413
*855 FILLER_45_417
*856 FILLER_45_419
*857 FILLER_45_66
*858 FILLER_45_70
*859 FILLER_45_73
*860 FILLER_46_101
*861 FILLER_46_105
*862 FILLER_46_108
*863 FILLER_46_172
*864 FILLER_46_176
*865 FILLER_46_179
*866 FILLER_46_2
*867 FILLER_46_243
*868 FILLER_46_247
*869 FILLER_46_250
*870 FILLER_46_314
*871 FILLER_46_318
*872 FILLER_46_321
*873 FILLER_46_34
*874 FILLER_46_37
*875 FILLER_46_385
*876 FILLER_46_389
*877 FILLER_46_392
*878 FILLER_46_408
*879 FILLER_46_416
*880 FILLER_47_137
*881 FILLER_47_141
*882 FILLER_47_144
*883 FILLER_47_2
*884 FILLER_47_208
*885 FILLER_47_212
*886 FILLER_47_215
*887 FILLER_47_279
*888 FILLER_47_283
*889 FILLER_47_286
*890 FILLER_47_350
*891 FILLER_47_354
*892 FILLER_47_357
*893 FILLER_47_389
*894 FILLER_47_405
*895 FILLER_47_413
*896 FILLER_47_417
*897 FILLER_47_419
*898 FILLER_47_66
*899 FILLER_47_70
*900 FILLER_47_73
*901 FILLER_48_101
*902 FILLER_48_105
*903 FILLER_48_108
*904 FILLER_48_172
*905 FILLER_48_176
*906 FILLER_48_179
*907 FILLER_48_2
*908 FILLER_48_243
*909 FILLER_48_247
*910 FILLER_48_250
*911 FILLER_48_314
*912 FILLER_48_318
*913 FILLER_48_321
*914 FILLER_48_34
*915 FILLER_48_37
*916 FILLER_48_385
*917 FILLER_48_389
*918 FILLER_48_392
*919 FILLER_48_408
*920 FILLER_48_416
*921 FILLER_49_137
*922 FILLER_49_141
*923 FILLER_49_144
*924 FILLER_49_2
*925 FILLER_49_208
*926 FILLER_49_212
*927 FILLER_49_215
*928 FILLER_49_279
*929 FILLER_49_283
*930 FILLER_49_286
*931 FILLER_49_350
*932 FILLER_49_354
*933 FILLER_49_357
*934 FILLER_49_389
*935 FILLER_49_405
*936 FILLER_49_413
*937 FILLER_49_417
*938 FILLER_49_419
*939 FILLER_49_7
*940 FILLER_49_73
*941 FILLER_4_101
*942 FILLER_4_105
*943 FILLER_4_108
*944 FILLER_4_172
*945 FILLER_4_176
*946 FILLER_4_179
*947 FILLER_4_2
*948 FILLER_4_243
*949 FILLER_4_247
*950 FILLER_4_250
*951 FILLER_4_314
*952 FILLER_4_318
*953 FILLER_4_321
*954 FILLER_4_34
*955 FILLER_4_37
*956 FILLER_4_385
*957 FILLER_4_389
*958 FILLER_4_392
*959 FILLER_4_408
*960 FILLER_4_416
*961 FILLER_50_101
*962 FILLER_50_105
*963 FILLER_50_108
*964 FILLER_50_172
*965 FILLER_50_176
*966 FILLER_50_179
*967 FILLER_50_2
*968 FILLER_50_243
*969 FILLER_50_247
*970 FILLER_50_250
*971 FILLER_50_314
*972 FILLER_50_318
*973 FILLER_50_321
*974 FILLER_50_34
*975 FILLER_50_37
*976 FILLER_50_385
*977 FILLER_50_389
*978 FILLER_50_392
*979 FILLER_50_408
*980 FILLER_50_416
*981 FILLER_51_137
*982 FILLER_51_141
*983 FILLER_51_144
*984 FILLER_51_2
*985 FILLER_51_208
*986 FILLER_51_212
*987 FILLER_51_215
*988 FILLER_51_279
*989 FILLER_51_283
*990 FILLER_51_286
*991 FILLER_51_350
*992 FILLER_51_354
*993 FILLER_51_357
*994 FILLER_51_389
*995 FILLER_51_405
*996 FILLER_51_413
*997 FILLER_51_417
*998 FILLER_51_419
*999 FILLER_51_66
*1000 FILLER_51_70
*1001 FILLER_51_73
*1002 FILLER_52_101
*1003 FILLER_52_105
*1004 FILLER_52_108
*1005 FILLER_52_172
*1006 FILLER_52_176
*1007 FILLER_52_179
*1008 FILLER_52_2
*1009 FILLER_52_243
*1010 FILLER_52_247
*1011 FILLER_52_250
*1012 FILLER_52_314
*1013 FILLER_52_318
*1014 FILLER_52_321
*1015 FILLER_52_34
*1016 FILLER_52_37
*1017 FILLER_52_385
*1018 FILLER_52_389
*1019 FILLER_52_392
*1020 FILLER_52_408
*1021 FILLER_52_416
*1022 FILLER_53_137
*1023 FILLER_53_141
*1024 FILLER_53_144
*1025 FILLER_53_2
*1026 FILLER_53_208
*1027 FILLER_53_212
*1028 FILLER_53_215
*1029 FILLER_53_279
*1030 FILLER_53_283
*1031 FILLER_53_286
*1032 FILLER_53_350
*1033 FILLER_53_354
*1034 FILLER_53_357
*1035 FILLER_53_389
*1036 FILLER_53_405
*1037 FILLER_53_413
*1038 FILLER_53_417
*1039 FILLER_53_419
*1040 FILLER_53_66
*1041 FILLER_53_70
*1042 FILLER_53_73
*1043 FILLER_54_104
*1044 FILLER_54_107
*1045 FILLER_54_139
*1046 FILLER_54_142
*1047 FILLER_54_174
*1048 FILLER_54_177
*1049 FILLER_54_2
*1050 FILLER_54_209
*1051 FILLER_54_212
*1052 FILLER_54_244
*1053 FILLER_54_247
*1054 FILLER_54_279
*1055 FILLER_54_282
*1056 FILLER_54_314
*1057 FILLER_54_317
*1058 FILLER_54_34
*1059 FILLER_54_349
*1060 FILLER_54_352
*1061 FILLER_54_37
*1062 FILLER_54_384
*1063 FILLER_54_387
*1064 FILLER_54_419
*1065 FILLER_54_69
*1066 FILLER_54_72
*1067 FILLER_5_137
*1068 FILLER_5_141
*1069 FILLER_5_144
*1070 FILLER_5_152
*1071 FILLER_5_156
*1072 FILLER_5_2
*1073 FILLER_5_208
*1074 FILLER_5_212
*1075 FILLER_5_215
*1076 FILLER_5_279
*1077 FILLER_5_283
*1078 FILLER_5_286
*1079 FILLER_5_350
*1080 FILLER_5_354
*1081 FILLER_5_357
*1082 FILLER_5_389
*1083 FILLER_5_405
*1084 FILLER_5_413
*1085 FILLER_5_417
*1086 FILLER_5_419
*1087 FILLER_5_66
*1088 FILLER_5_70
*1089 FILLER_5_73
*1090 FILLER_6_101
*1091 FILLER_6_105
*1092 FILLER_6_108
*1093 FILLER_6_172
*1094 FILLER_6_176
*1095 FILLER_6_179
*1096 FILLER_6_2
*1097 FILLER_6_243
*1098 FILLER_6_247
*1099 FILLER_6_250
*1100 FILLER_6_314
*1101 FILLER_6_318
*1102 FILLER_6_321
*1103 FILLER_6_34
*1104 FILLER_6_37
*1105 FILLER_6_385
*1106 FILLER_6_389
*1107 FILLER_6_392
*1108 FILLER_6_408
*1109 FILLER_6_416
*1110 FILLER_7_13
*1111 FILLER_7_137
*1112 FILLER_7_141
*1113 FILLER_7_144
*1114 FILLER_7_2
*1115 FILLER_7_208
*1116 FILLER_7_212
*1117 FILLER_7_215
*1118 FILLER_7_279
*1119 FILLER_7_283
*1120 FILLER_7_286
*1121 FILLER_7_350
*1122 FILLER_7_354
*1123 FILLER_7_357
*1124 FILLER_7_389
*1125 FILLER_7_405
*1126 FILLER_7_413
*1127 FILLER_7_417
*1128 FILLER_7_419
*1129 FILLER_7_45
*1130 FILLER_7_61
*1131 FILLER_7_69
*1132 FILLER_7_73
*1133 FILLER_7_9
*1134 FILLER_8_101
*1135 FILLER_8_105
*1136 FILLER_8_108
*1137 FILLER_8_172
*1138 FILLER_8_176
*1139 FILLER_8_179
*1140 FILLER_8_195
*1141 FILLER_8_2
*1142 FILLER_8_228
*1143 FILLER_8_232
*1144 FILLER_8_250
*1145 FILLER_8_314
*1146 FILLER_8_318
*1147 FILLER_8_321
*1148 FILLER_8_34
*1149 FILLER_8_37
*1150 FILLER_8_385
*1151 FILLER_8_389
*1152 FILLER_8_392
*1153 FILLER_8_408
*1154 FILLER_8_416
*1155 FILLER_9_137
*1156 FILLER_9_141
*1157 FILLER_9_144
*1158 FILLER_9_176
*1159 FILLER_9_192
*1160 FILLER_9_2
*1161 FILLER_9_202
*1162 FILLER_9_212
*1163 FILLER_9_215
*1164 FILLER_9_266
*1165 FILLER_9_282
*1166 FILLER_9_286
*1167 FILLER_9_350
*1168 FILLER_9_354
*1169 FILLER_9_357
*1170 FILLER_9_389
*1171 FILLER_9_405
*1172 FILLER_9_413
*1173 FILLER_9_417
*1174 FILLER_9_419
*1175 FILLER_9_66
*1176 FILLER_9_70
*1177 FILLER_9_73
*1178 PHY_0
*1179 PHY_1
*1180 PHY_10
*1181 PHY_100
*1182 PHY_101
*1183 PHY_102
*1184 PHY_103
*1185 PHY_104
*1186 PHY_105
*1187 PHY_106
*1188 PHY_107
*1189 PHY_108
*1190 PHY_109
*1191 PHY_11
*1192 PHY_12
*1193 PHY_13
*1194 PHY_14
*1195 PHY_15
*1196 PHY_16
*1197 PHY_17
*1198 PHY_18
*1199 PHY_19
*1200 PHY_2
*1201 PHY_20
*1202 PHY_21
*1203 PHY_22
*1204 PHY_23
*1205 PHY_24
*1206 PHY_25
*1207 PHY_26
*1208 PHY_27
*1209 PHY_28
*1210 PHY_29
*1211 PHY_3
*1212 PHY_30
*1213 PHY_31
*1214 PHY_32
*1215 PHY_33
*1216 PHY_34
*1217 PHY_35
*1218 PHY_36
*1219 PHY_37
*1220 PHY_38
*1221 PHY_39
*1222 PHY_4
*1223 PHY_40
*1224 PHY_41
*1225 PHY_42
*1226 PHY_43
*1227 PHY_44
*1228 PHY_45
*1229 PHY_46
*1230 PHY_47
*1231 PHY_48
*1232 PHY_49
*1233 PHY_5
*1234 PHY_50
*1235 PHY_51
*1236 PHY_52
*1237 PHY_53
*1238 PHY_54
*1239 PHY_55
*1240 PHY_56
*1241 PHY_57
*1242 PHY_58
*1243 PHY_59
*1244 PHY_6
*1245 PHY_60
*1246 PHY_61
*1247 PHY_62
*1248 PHY_63
*1249 PHY_64
*1250 PHY_65
*1251 PHY_66
*1252 PHY_67
*1253 PHY_68
*1254 PHY_69
*1255 PHY_7
*1256 PHY_70
*1257 PHY_71
*1258 PHY_72
*1259 PHY_73
*1260 PHY_74
*1261 PHY_75
*1262 PHY_76
*1263 PHY_77
*1264 PHY_78
*1265 PHY_79
*1266 PHY_8
*1267 PHY_80
*1268 PHY_81
*1269 PHY_82
*1270 PHY_83
*1271 PHY_84
*1272 PHY_85
*1273 PHY_86
*1274 PHY_87
*1275 PHY_88
*1276 PHY_89
*1277 PHY_9
*1278 PHY_90
*1279 PHY_91
*1280 PHY_92
*1281 PHY_93
*1282 PHY_94
*1283 PHY_95
*1284 PHY_96
*1285 PHY_97
*1286 PHY_98
*1287 PHY_99
*1288 TAP_110
*1289 TAP_111
*1290 TAP_112
*1291 TAP_113
*1292 TAP_114
*1293 TAP_115
*1294 TAP_116
*1295 TAP_117
*1296 TAP_118
*1297 TAP_119
*1298 TAP_120
*1299 TAP_121
*1300 TAP_122
*1301 TAP_123
*1302 TAP_124
*1303 TAP_125
*1304 TAP_126
*1305 TAP_127
*1306 TAP_128
*1307 TAP_129
*1308 TAP_130
*1309 TAP_131
*1310 TAP_132
*1311 TAP_133
*1312 TAP_134
*1313 TAP_135
*1314 TAP_136
*1315 TAP_137
*1316 TAP_138
*1317 TAP_139
*1318 TAP_140
*1319 TAP_141
*1320 TAP_142
*1321 TAP_143
*1322 TAP_144
*1323 TAP_145
*1324 TAP_146
*1325 TAP_147
*1326 TAP_148
*1327 TAP_149
*1328 TAP_150
*1329 TAP_151
*1330 TAP_152
*1331 TAP_153
*1332 TAP_154
*1333 TAP_155
*1334 TAP_156
*1335 TAP_157
*1336 TAP_158
*1337 TAP_159
*1338 TAP_160
*1339 TAP_161
*1340 TAP_162
*1341 TAP_163
*1342 TAP_164
*1343 TAP_165
*1344 TAP_166
*1345 TAP_167
*1346 TAP_168
*1347 TAP_169
*1348 TAP_170
*1349 TAP_171
*1350 TAP_172
*1351 TAP_173
*1352 TAP_174
*1353 TAP_175
*1354 TAP_176
*1355 TAP_177
*1356 TAP_178
*1357 TAP_179
*1358 TAP_180
*1359 TAP_181
*1360 TAP_182
*1361 TAP_183
*1362 TAP_184
*1363 TAP_185
*1364 TAP_186
*1365 TAP_187
*1366 TAP_188
*1367 TAP_189
*1368 TAP_190
*1369 TAP_191
*1370 TAP_192
*1371 TAP_193
*1372 TAP_194
*1373 TAP_195
*1374 TAP_196
*1375 TAP_197
*1376 TAP_198
*1377 TAP_199
*1378 TAP_200
*1379 TAP_201
*1380 TAP_202
*1381 TAP_203
*1382 TAP_204
*1383 TAP_205
*1384 TAP_206
*1385 TAP_207
*1386 TAP_208
*1387 TAP_209
*1388 TAP_210
*1389 TAP_211
*1390 TAP_212
*1391 TAP_213
*1392 TAP_214
*1393 TAP_215
*1394 TAP_216
*1395 TAP_217
*1396 TAP_218
*1397 TAP_219
*1398 TAP_220
*1399 TAP_221
*1400 TAP_222
*1401 TAP_223
*1402 TAP_224
*1403 TAP_225
*1404 TAP_226
*1405 TAP_227
*1406 TAP_228
*1407 TAP_229
*1408 TAP_230
*1409 TAP_231
*1410 TAP_232
*1411 TAP_233
*1412 TAP_234
*1413 TAP_235
*1414 TAP_236
*1415 TAP_237
*1416 TAP_238
*1417 TAP_239
*1418 TAP_240
*1419 TAP_241
*1420 TAP_242
*1421 TAP_243
*1422 TAP_244
*1423 TAP_245
*1424 TAP_246
*1425 TAP_247
*1426 TAP_248
*1427 TAP_249
*1428 TAP_250
*1429 TAP_251
*1430 TAP_252
*1431 TAP_253
*1432 TAP_254
*1433 TAP_255
*1434 TAP_256
*1435 TAP_257
*1436 TAP_258
*1437 TAP_259
*1438 TAP_260
*1439 TAP_261
*1440 TAP_262
*1441 TAP_263
*1442 TAP_264
*1443 TAP_265
*1444 TAP_266
*1445 TAP_267
*1446 TAP_268
*1447 TAP_269
*1448 TAP_270
*1449 TAP_271
*1450 TAP_272
*1451 TAP_273
*1452 TAP_274
*1453 TAP_275
*1454 TAP_276
*1455 TAP_277
*1456 TAP_278
*1457 TAP_279
*1458 TAP_280
*1459 TAP_281
*1460 TAP_282
*1461 TAP_283
*1462 TAP_284
*1463 TAP_285
*1464 TAP_286
*1465 TAP_287
*1466 TAP_288
*1467 TAP_289
*1468 TAP_290
*1469 TAP_291
*1470 TAP_292
*1471 TAP_293
*1472 TAP_294
*1473 TAP_295
*1474 TAP_296
*1475 TAP_297
*1476 TAP_298
*1477 TAP_299
*1478 TAP_300
*1479 TAP_301
*1480 TAP_302
*1481 TAP_303
*1482 TAP_304
*1483 TAP_305
*1484 TAP_306
*1485 TAP_307
*1486 TAP_308
*1487 TAP_309
*1488 TAP_310
*1489 TAP_311
*1490 TAP_312
*1491 TAP_313
*1492 TAP_314
*1493 TAP_315
*1494 TAP_316
*1495 TAP_317
*1496 TAP_318
*1497 TAP_319
*1498 TAP_320
*1499 TAP_321
*1500 TAP_322
*1501 TAP_323
*1502 TAP_324
*1503 TAP_325
*1504 TAP_326
*1505 TAP_327
*1506 TAP_328
*1507 TAP_329
*1508 TAP_330
*1509 TAP_331
*1510 TAP_332
*1511 TAP_333
*1512 TAP_334
*1513 TAP_335
*1514 TAP_336
*1515 TAP_337
*1516 TAP_338
*1517 TAP_339
*1518 TAP_340
*1519 TAP_341
*1520 TAP_342
*1521 TAP_343
*1522 TAP_344
*1523 TAP_345
*1524 TAP_346
*1525 TAP_347
*1526 TAP_348
*1527 TAP_349
*1528 TAP_350
*1529 TAP_351
*1530 TAP_352
*1531 TAP_353
*1532 TAP_354
*1533 TAP_355
*1534 TAP_356
*1535 TAP_357
*1536 TAP_358
*1537 TAP_359
*1538 TAP_360
*1539 TAP_361
*1540 TAP_362
*1541 TAP_363
*1542 TAP_364
*1543 TAP_365
*1544 TAP_366
*1545 TAP_367
*1546 TAP_368
*1547 TAP_369
*1548 TAP_370
*1549 TAP_371
*1550 TAP_372
*1551 TAP_373
*1552 TAP_374
*1553 TAP_375
*1554 TAP_376
*1555 TAP_377
*1556 TAP_378
*1557 TAP_379
*1558 TAP_380
*1559 TAP_381
*1560 TAP_382
*1561 TAP_383
*1562 TAP_384
*1563 TAP_385
*1564 TAP_386
*1565 TAP_387
*1566 TAP_388
*1567 TAP_389
*1568 TAP_390
*1569 TAP_391
*1570 TAP_392
*1571 TAP_393
*1572 TAP_394
*1573 TAP_395
*1574 TAP_396
*1575 TAP_397
*1576 TAP_398
*1577 TAP_399
*1578 TAP_400
*1579 TAP_401
*1580 TAP_402
*1581 TAP_403
*1582 TAP_404
*1583 TAP_405
*1584 TAP_406
*1585 TAP_407
*1586 TAP_408
*1587 TAP_409
*1588 TAP_410
*1589 TAP_411
*1590 TAP_412
*1591 TAP_413
*1592 TAP_414
*1593 TAP_415
*1594 TAP_416
*1595 TAP_417
*1596 TAP_418
*1597 TAP_419
*1598 TAP_420
*1599 TAP_421
*1600 TAP_422
*1601 _1_
*1602 _2_
*1603 _3_
*1604 clkbuf_0_core_clock
*1605 clkbuf_1_0__f_core_clock
*1606 clkbuf_1_1__f_core_clock
*1607 clock_source_sel_3
*1608 clock_source_sel_4
*1609 input1
*1610 output2

*PORTS
clock_out_a O
clock_out_b O
clock_out_c O
core_clock I
io_clock I
la_oenb I

*D_NET *1 0.000773438
*CONN
*P clock_out_a O
*I *1610:Z O *D gf180mcu_fd_sc_mcu7t5v0__buf_1
*CAP
1 clock_out_a 0.000386719
2 *1610:Z 0.000386719
*RES
1 *1610:Z clock_out_a 12.735 
*END

*D_NET *2 0.000633827
*CONN
*P clock_out_b O
*I *1607:ZN O *D gf180mcu_fd_sc_mcu7t5v0__tiel
*CAP
1 clock_out_b 0.000316914
2 *1607:ZN 0.000316914
*RES
1 *1607:ZN clock_out_b 11.835 
*END

*D_NET *3 0.000678508
*CONN
*P clock_out_c O
*I *1608:ZN O *D gf180mcu_fd_sc_mcu7t5v0__tiel
*CAP
1 clock_out_c 0.000339254
2 *1608:ZN 0.000339254
*RES
1 *1608:ZN clock_out_c 12.195 
*END

*D_NET *4 0.00867765
*CONN
*P core_clock I
*I *1604:I I *D gf180mcu_fd_sc_mcu7t5v0__clkbuf_16
*I *18:I I *D gf180mcu_fd_sc_mcu7t5v0__antenna
*CAP
1 core_clock 0.00363943
2 *1604:I 6.17895e-05
3 *18:I 0
4 *4:8 0.00370122
5 *1604:I *1601:I1 4.04104e-05
6 *1604:I *1601:S 0.000184127
7 *1604:I *10:11 0.000746038
8 *4:8 *1601:I1 3.10849e-06
9 *4:8 *1603:D 0
10 *4:8 *1603:CLK 0.000115014
11 *4:8 *10:11 0.000186509
*RES
1 core_clock *4:8 40.815 
2 *4:8 *18:I 9 
3 *4:8 *1604:I 10.44 
*END

*D_NET *5 0.0127422
*CONN
*P io_clock I
*I *16:I I *D gf180mcu_fd_sc_mcu7t5v0__antenna
*I *1601:I1 I *D gf180mcu_fd_sc_mcu7t5v0__mux2_2
*CAP
1 io_clock 0.00339974
2 *16:I 0
3 *1601:I1 0.000267682
4 *5:11 0.00294192
5 *5:10 0.00607397
6 *1601:I1 *1601:I0 0
7 *1601:I1 *1601:S 1.53439e-05
8 *1601:I1 *10:11 0
9 *5:11 *20:I 0
10 *5:11 *1601:I0 0
11 *5:11 *10:11 0
12 *5:11 *10:26 0
13 *1604:I *1601:I1 4.04104e-05
14 *4:8 *1601:I1 3.10849e-06
*RES
1 io_clock *5:10 39.375 
2 *5:10 *5:11 29.07 
3 *5:11 *1601:I1 11.88 
4 *5:11 *16:I 9 
*END

*D_NET *6 0.00137996
*CONN
*P la_oenb I