*SPEF "ieee 1481-1999"
*DESIGN "spi_controller"
*DATE "11:11:11 Fri 11 11, 1111"
*VENDOR "OpenRCX"
*PROGRAM "Parallel Extraction"
*VERSION "1.0"
*DESIGN_FLOW "NAME_SCOPE LOCAL" "PIN_CAP NONE"
*DIVIDER /
*DELIMITER :
*BUS_DELIMITER []
*T_UNIT 1 NS
*C_UNIT 1 PF
*R_UNIT 1 OHM
*L_UNIT 1 HENRY

*NAME_MAP
*1 clock
*2 clock_out
*3 data_out[0]
*4 data_out[10]
*5 data_out[11]
*6 data_out[12]
*7 data_out[13]
*8 data_out[14]
*9 data_out[15]
*10 data_out[16]
*11 data_out[17]
*12 data_out[18]
*13 data_out[19]
*14 data_out[1]
*15 data_out[20]
*16 data_out[21]
*17 data_out[22]
*18 data_out[23]
*19 data_out[24]
*20 data_out[25]
*21 data_out[26]
*22 data_out[27]
*23 data_out[28]
*24 data_out[29]
*25 data_out[2]
*26 data_out[30]
*27 data_out[31]
*28 data_out[3]
*29 data_out[4]
*30 data_out[5]
*31 data_out[6]
*32 data_out[7]
*33 data_out[8]
*34 data_out[9]
*35 la_data_in[0]
*36 la_data_in[1]
*37 la_data_in[2]
*38 la_data_in[3]
*39 net38
*40 net39
*41 net40
*42 net41
*43 miso
*44 net45
*45 mosi
*46 net42
*47 sclk
*48 net43
*49 ss_n
*50 net44
*53 _000_
*54 _001_
*55 _002_
*56 _003_
*57 _004_
*58 _005_
*59 _006_
*60 _007_
*61 _008_
*62 _009_
*63 _010_
*64 _011_
*65 _012_
*66 _013_
*67 _014_
*68 _015_
*69 _016_
*70 _017_
*71 _018_
*72 _019_
*73 _020_
*74 _021_
*75 _022_
*76 _023_
*77 _024_
*78 _025_
*79 _026_
*80 _027_
*81 _028_
*82 _029_
*83 _030_
*84 _031_
*85 _032_
*86 _033_
*87 _034_
*88 _035_
*89 _036_
*90 _037_
*91 _038_
*92 _039_
*93 _040_
*94 _041_
*95 _042_
*96 _043_
*97 _044_
*98 _045_
*99 _046_
*100 _047_
*101 _048_
*102 _049_
*103 _050_
*104 _051_
*105 _052_
*106 _053_
*107 _054_
*108 _055_
*109 _056_
*110 _057_
*111 _058_
*112 _059_
*113 _060_
*114 _061_
*115 _062_
*116 _063_
*117 _064_
*118 _065_
*119 _066_
*120 _067_
*121 _068_
*122 _069_
*123 _070_
*124 _071_
*125 _072_
*126 _073_
*127 _074_
*128 _075_
*129 _076_
*130 _077_
*131 clknet_0_clock
*132 clknet_2_0__leaf_clock
*133 clknet_2_1__leaf_clock
*134 clknet_2_2__leaf_clock
*135 clknet_2_3__leaf_clock
*136 mosi_reg\[0\]
*137 mosi_reg\[1\]
*138 mosi_reg\[2\]
*139 net1
*140 net10
*141 net11
*142 net12
*143 net13
*144 net14
*145 net15
*146 net16
*147 net17
*148 net18
*149 net19
*150 net2
*151 net20
*152 net21
*153 net22
*154 net23
*155 net24
*156 net25
*157 net26
*158 net27
*159 net28
*160 net29
*161 net3
*162 net30
*163 net31
*164 net32
*165 net33
*166 net34
*167 net35
*168 net36
*169 net37
*170 net4
*171 net5
*172 net6
*173 net7
*174 net8
*175 net9
*176 sclk_reg\[0\]
*177 sclk_reg\[1\]
*178 sclk_reg\[2\]
*179 ss_n_reg\[0\]
*180 ss_n_reg\[1\]
*181 ss_n_reg\[2\]
*182 ANTENNA__078__A1
*183 ANTENNA__078__A2
*184 ANTENNA__079__I
*185 ANTENNA__080__A1
*186 ANTENNA__080__A2
*187 ANTENNA__081__A2
*188 ANTENNA__084__I1
*189 ANTENNA__084__S
*190 ANTENNA__086__I0
*191 ANTENNA__086__I1
*192 ANTENNA__086__S
*193 ANTENNA__088__I0
*194 ANTENNA__088__I1
*195 ANTENNA__088__S
*196 ANTENNA__090__I0
*197 ANTENNA__090__I1
*198 ANTENNA__090__S
*199 ANTENNA__093__I0
*200 ANTENNA__093__I1
*201 ANTENNA__095__I0
*202 ANTENNA__095__I1
*203 ANTENNA__097__I0
*204 ANTENNA__097__I1
*205 ANTENNA__099__I0
*206 ANTENNA__099__I1
*207 ANTENNA__102__I0
*208 ANTENNA__102__I1
*209 ANTENNA__104__I0
*210 ANTENNA__104__I1
*211 ANTENNA__106__I0
*212 ANTENNA__106__I1
*213 ANTENNA__108__I0
*214 ANTENNA__108__I1
*215 ANTENNA__111__I0
*216 ANTENNA__111__I1
*217 ANTENNA__113__I0
*218 ANTENNA__113__I1
*219 ANTENNA__115__I0
*220 ANTENNA__115__I1
*221 ANTENNA__117__I0
*222 ANTENNA__117__I1
*223 ANTENNA__121__I0
*224 ANTENNA__121__I1
*225 ANTENNA__121__S
*226 ANTENNA__123__I0
*227 ANTENNA__123__I1
*228 ANTENNA__123__S
*229 ANTENNA__125__I0
*230 ANTENNA__125__I1
*231 ANTENNA__125__S
*232 ANTENNA__127__I0
*233 ANTENNA__127__I1
*234 ANTENNA__127__S
*235 ANTENNA__130__I0
*236 ANTENNA__130__I1
*237 ANTENNA__132__I0
*238 ANTENNA__132__I1
*239 ANTENNA__134__I0
*240 ANTENNA__134__I1
*241 ANTENNA__136__I0
*242 ANTENNA__136__I1
*243 ANTENNA__137__I
*244 ANTENNA__139__I0
*245 ANTENNA__139__I1
*246 ANTENNA__140__I
*247 ANTENNA__141__I0
*248 ANTENNA__141__I1
*249 ANTENNA__142__I
*250 ANTENNA__143__I0
*251 ANTENNA__143__I1
*252 ANTENNA__144__I
*253 ANTENNA__145__I0
*254 ANTENNA__145__I1
*255 ANTENNA__146__I
*256 ANTENNA__148__I0
*257 ANTENNA__148__I1
*258 ANTENNA__148__S
*259 ANTENNA__149__I
*260 ANTENNA__150__I0
*261 ANTENNA__150__I1
*262 ANTENNA__150__S
*263 ANTENNA__151__I
*264 ANTENNA__152__I0
*265 ANTENNA__152__I1
*266 ANTENNA__152__S
*267 ANTENNA__153__I
*268 ANTENNA__154__I0
*269 ANTENNA__154__I1
*270 ANTENNA__154__S
*271 ANTENNA__156__CLK
*272 ANTENNA__156__D
*273 ANTENNA__157__CLK
*274 ANTENNA__158__CLK
*275 ANTENNA__158__D
*276 ANTENNA__159__CLK
*277 ANTENNA__159__D
*278 ANTENNA__160__CLK
*279 ANTENNA__161__CLK
*280 ANTENNA__161__D
*281 ANTENNA__162__CLK
*282 ANTENNA__163__CLK
*283 ANTENNA__164__CLK
*284 ANTENNA__164__D
*285 ANTENNA__165__CLK
*286 ANTENNA__165__D
*287 ANTENNA__166__CLK
*288 ANTENNA__167__CLK
*289 ANTENNA__167__D
*290 ANTENNA__168__CLK
*291 ANTENNA__169__CLK
*292 ANTENNA__169__D
*293 ANTENNA__170__CLK
*294 ANTENNA__170__D
*295 ANTENNA__171__CLK
*296 ANTENNA__172__CLK
*297 ANTENNA__173__CLK
*298 ANTENNA__174__CLK
*299 ANTENNA__174__D
*300 ANTENNA__175__CLK
*301 ANTENNA__175__D
*302 ANTENNA__176__CLK
*303 ANTENNA__176__D
*304 ANTENNA__177__CLK
*305 ANTENNA__177__D
*306 ANTENNA__178__CLK
*307 ANTENNA__178__D
*308 ANTENNA__179__CLK
*309 ANTENNA__179__D
*310 ANTENNA__180__CLK
*311 ANTENNA__180__D
*312 ANTENNA__181__CLK
*313 ANTENNA__181__D
*314 ANTENNA__182__CLK
*315 ANTENNA__182__D
*316 ANTENNA__183__CLK
*317 ANTENNA__183__D
*318 ANTENNA__184__CLK
*319 ANTENNA__184__D
*320 ANTENNA__185__CLK
*321 ANTENNA__185__D
*322 ANTENNA__186__CLK
*323 ANTENNA__186__D
*324 ANTENNA__187__CLK
*325 ANTENNA__187__D
*326 ANTENNA__188__CLK
*327 ANTENNA__188__D
*328 ANTENNA__189__CLK
*329 ANTENNA__189__D
*330 ANTENNA__190__CLK
*331 ANTENNA__191__CLK
*332 ANTENNA__192__CLK
*333 ANTENNA__193__CLK
*334 ANTENNA__194__CLK
*335 ANTENNA__195__CLK
*336 ANTENNA__196__CLK
*337 ANTENNA__196__D
*338 ANTENNA__205__I
*339 ANTENNA__206__I
*340 ANTENNA_clkbuf_0_clock_I
*341 ANTENNA_clkbuf_2_0__f_clock_I
*342 ANTENNA_clkbuf_2_1__f_clock_I
*343 ANTENNA_clkbuf_2_2__f_clock_I
*344 ANTENNA_clkbuf_2_3__f_clock_I
*345 ANTENNA_input1_I
*346 ANTENNA_input2_I
*347 ANTENNA_input3_I
*348 ANTENNA_output10_I
*349 ANTENNA_output11_I
*350 ANTENNA_output12_I
*351 ANTENNA_output13_I
*352 ANTENNA_output14_I
*353 ANTENNA_output15_I
*354 ANTENNA_output16_I
*355 ANTENNA_output17_I
*356 ANTENNA_output18_I
*357 ANTENNA_output19_I
*358 ANTENNA_output20_I
*359 ANTENNA_output21_I
*360 ANTENNA_output22_I
*361 ANTENNA_output23_I
*362 ANTENNA_output24_I
*363 ANTENNA_output25_I
*364 ANTENNA_output26_I
*365 ANTENNA_output27_I
*366 ANTENNA_output28_I
*367 ANTENNA_output29_I
*368 ANTENNA_output30_I
*369 ANTENNA_output31_I
*370 ANTENNA_output32_I
*371 ANTENNA_output33_I
*372 ANTENNA_output34_I
*373 ANTENNA_output35_I
*374 ANTENNA_output36_I
*375 ANTENNA_output37_I
*376 ANTENNA_output4_I
*377 ANTENNA_output5_I
*378 ANTENNA_output6_I
*379 ANTENNA_output7_I
*380 ANTENNA_output8_I
*381 ANTENNA_output9_I
*382 FILLER_0_104
*383 FILLER_0_107
*384 FILLER_0_111
*385 FILLER_0_117
*386 FILLER_0_133
*387 FILLER_0_137
*388 FILLER_0_139
*389 FILLER_0_142
*390 FILLER_0_158
*391 FILLER_0_166
*392 FILLER_0_174
*393 FILLER_0_177
*394 FILLER_0_193
*395 FILLER_0_2
*396 FILLER_0_201
*397 FILLER_0_209
*398 FILLER_0_212
*399 FILLER_0_214
*400 FILLER_0_244
*401 FILLER_0_247
*402 FILLER_0_25
*403 FILLER_0_250
*404 FILLER_0_254
*405 FILLER_0_258
*406 FILLER_0_274
*407 FILLER_0_278
*408 FILLER_0_282
*409 FILLER_0_314
*410 FILLER_0_317
*411 FILLER_0_319
*412 FILLER_0_322
*413 FILLER_0_324
*414 FILLER_0_327
*415 FILLER_0_33
*416 FILLER_0_343
*417 FILLER_0_347
*418 FILLER_0_349
*419 FILLER_0_352
*420 FILLER_0_37
*421 FILLER_0_384
*422 FILLER_0_387
*423 FILLER_0_395
*424 FILLER_0_399
*425 FILLER_0_403
*426 FILLER_0_419
*427 FILLER_0_53
*428 FILLER_0_61
*429 FILLER_0_63
*430 FILLER_0_68
*431 FILLER_0_72
*432 FILLER_0_9
*433 FILLER_10_101
*434 FILLER_10_105
*435 FILLER_10_108
*436 FILLER_10_142
*437 FILLER_10_173
*438 FILLER_10_179
*439 FILLER_10_2
*440 FILLER_10_209
*441 FILLER_10_240
*442 FILLER_10_244
*443 FILLER_10_250
*444 FILLER_10_280
*445 FILLER_10_311
*446 FILLER_10_315
*447 FILLER_10_321
*448 FILLER_10_34
*449 FILLER_10_351
*450 FILLER_10_353
*451 FILLER_10_356
*452 FILLER_10_368
*453 FILLER_10_37
*454 FILLER_10_376
*455 FILLER_10_384
*456 FILLER_10_388
*457 FILLER_10_392
*458 FILLER_10_408
*459 FILLER_10_416
*460 FILLER_11_137
*461 FILLER_11_141
*462 FILLER_11_144
*463 FILLER_11_160
*464 FILLER_11_168
*465 FILLER_11_172
*466 FILLER_11_175
*467 FILLER_11_2
*468 FILLER_11_207
*469 FILLER_11_211
*470 FILLER_11_215
*471 FILLER_11_231
*472 FILLER_11_235
*473 FILLER_11_239
*474 FILLER_11_270
*475 FILLER_11_274
*476 FILLER_11_278
*477 FILLER_11_282
*478 FILLER_11_286
*479 FILLER_11_294
*480 FILLER_11_296
*481 FILLER_11_299
*482 FILLER_11_330
*483 FILLER_11_346
*484 FILLER_11_354
*485 FILLER_11_357
*486 FILLER_11_373
*487 FILLER_11_377
*488 FILLER_11_393
*489 FILLER_11_403
*490 FILLER_11_419
*491 FILLER_11_66
*492 FILLER_11_70
*493 FILLER_11_73
*494 FILLER_12_101
*495 FILLER_12_105
*496 FILLER_12_108
*497 FILLER_12_124
*498 FILLER_12_126
*499 FILLER_12_129
*500 FILLER_12_160
*501 FILLER_12_164
*502 FILLER_12_172
*503 FILLER_12_176
*504 FILLER_12_179
*505 FILLER_12_2
*506 FILLER_12_243
*507 FILLER_12_247
*508 FILLER_12_250
*509 FILLER_12_280
*510 FILLER_12_284
*511 FILLER_12_300
*512 FILLER_12_308
*513 FILLER_12_312
*514 FILLER_12_314
*515 FILLER_12_317
*516 FILLER_12_321
*517 FILLER_12_324
*518 FILLER_12_334
*519 FILLER_12_34
*520 FILLER_12_342
*521 FILLER_12_346
*522 FILLER_12_354
*523 FILLER_12_364
*524 FILLER_12_37
*525 FILLER_12_380
*526 FILLER_12_388
*527 FILLER_12_392
*528 FILLER_12_408
*529 FILLER_12_416
*530 FILLER_13_137
*531 FILLER_13_141
*532 FILLER_13_144
*533 FILLER_13_2
*534 FILLER_13_208
*535 FILLER_13_212
*536 FILLER_13_215
*537 FILLER_13_279
*538 FILLER_13_283
*539 FILLER_13_286
*540 FILLER_13_290
*541 FILLER_13_294
*542 FILLER_13_302
*543 FILLER_13_306
*544 FILLER_13_308
*545 FILLER_13_311
*546 FILLER_13_315
*547 FILLER_13_332
*548 FILLER_13_349
*549 FILLER_13_353
*550 FILLER_13_357
*551 FILLER_13_389
*552 FILLER_13_397
*553 FILLER_13_403
*554 FILLER_13_419
*555 FILLER_13_66
*556 FILLER_13_70
*557 FILLER_13_73
*558 FILLER_14_101
*559 FILLER_14_105
*560 FILLER_14_108
*561 FILLER_14_172
*562 FILLER_14_176
*563 FILLER_14_179
*564 FILLER_14_2
*565 FILLER_14_243
*566 FILLER_14_247
*567 FILLER_14_250
*568 FILLER_14_282
*569 FILLER_14_284
*570 FILLER_14_287
*571 FILLER_14_291
*572 FILLER_14_293
*573 FILLER_14_309
*574 FILLER_14_313
*575 FILLER_14_315
*576 FILLER_14_318
*577 FILLER_14_321
*578 FILLER_14_337
*579 FILLER_14_34
*580 FILLER_14_347
*581 FILLER_14_357
*582 FILLER_14_37
*583 FILLER_14_389
*584 FILLER_14_392
*585 FILLER_14_408
*586 FILLER_14_416
*587 FILLER_15_137
*588 FILLER_15_141
*589 FILLER_15_144
*590 FILLER_15_2
*591 FILLER_15_208
*592 FILLER_15_212
*593 FILLER_15_215
*594 FILLER_15_253
*595 FILLER_15_257
*596 FILLER_15_261
*597 FILLER_15_264
*598 FILLER_15_280
*599 FILLER_15_286
*600 FILLER_15_289
*601 FILLER_15_306
*602 FILLER_15_323
*603 FILLER_15_340
*604 FILLER_15_352
*605 FILLER_15_354
*606 FILLER_15_357
*607 FILLER_15_360
*608 FILLER_15_392
*609 FILLER_15_400
*610 FILLER_15_403
*611 FILLER_15_419
*612 FILLER_15_5
*613 FILLER_15_69
*614 FILLER_15_73
*615 FILLER_16_101
*616 FILLER_16_105
*617 FILLER_16_108
*618 FILLER_16_172
*619 FILLER_16_176
*620 FILLER_16_179
*621 FILLER_16_2
*622 FILLER_16_211
*623 FILLER_16_227
*624 FILLER_16_235
*625 FILLER_16_239
*626 FILLER_16_247
*627 FILLER_16_25
*628 FILLER_16_250
*629 FILLER_16_254
*630 FILLER_16_262
*631 FILLER_16_270
*632 FILLER_16_274
*633 FILLER_16_278
*634 FILLER_16_280
*635 FILLER_16_283
*636 FILLER_16_287
*637 FILLER_16_304
*638 FILLER_16_308
*639 FILLER_16_316
*640 FILLER_16_318
*641 FILLER_16_321
*642 FILLER_16_324
*643 FILLER_16_328
*644 FILLER_16_33
*645 FILLER_16_332
*646 FILLER_16_336
*647 FILLER_16_340
*648 FILLER_16_347
*649 FILLER_16_355
*650 FILLER_16_37
*651 FILLER_16_387
*652 FILLER_16_389
*653 FILLER_16_392
*654 FILLER_16_408
*655 FILLER_16_416
*656 FILLER_16_9
*657 FILLER_17_137
*658 FILLER_17_141
*659 FILLER_17_144
*660 FILLER_17_2
*661 FILLER_17_208
*662 FILLER_17_212
*663 FILLER_17_215
*664 FILLER_17_247
*665 FILLER_17_263
*666 FILLER_17_271
*667 FILLER_17_275
*668 FILLER_17_283
*669 FILLER_17_286
*670 FILLER_17_296
*671 FILLER_17_300
*672 FILLER_17_317
*673 FILLER_17_334
*674 FILLER_17_342
*675 FILLER_17_350
*676 FILLER_17_354
*677 FILLER_17_357
*678 FILLER_17_364
*679 FILLER_17_396
*680 FILLER_17_400
*681 FILLER_17_403
*682 FILLER_17_419
*683 FILLER_17_66
*684 FILLER_17_70
*685 FILLER_17_73
*686 FILLER_18_101
*687 FILLER_18_105
*688 FILLER_18_108
*689 FILLER_18_172
*690 FILLER_18_176
*691 FILLER_18_179
*692 FILLER_18_2
*693 FILLER_18_243
*694 FILLER_18_247
*695 FILLER_18_250
*696 FILLER_18_257
*697 FILLER_18_261
*698 FILLER_18_265
*699 FILLER_18_272
*700 FILLER_18_276
*701 FILLER_18_284
*702 FILLER_18_288
*703 FILLER_18_290
*704 FILLER_18_293
*705 FILLER_18_301
*706 FILLER_18_318
*707 FILLER_18_321
*708 FILLER_18_328
*709 FILLER_18_332
*710 FILLER_18_34
*711 FILLER_18_364
*712 FILLER_18_37
*713 FILLER_18_380
*714 FILLER_18_388
*715 FILLER_18_392
*716 FILLER_18_408
*717 FILLER_18_416
*718 FILLER_19_137
*719 FILLER_19_141
*720 FILLER_19_144
*721 FILLER_19_2
*722 FILLER_19_208
*723 FILLER_19_212
*724 FILLER_19_215
*725 FILLER_19_253
*726 FILLER_19_257
*727 FILLER_19_261
*728 FILLER_19_269
*729 FILLER_19_277
*730 FILLER_19_281
*731 FILLER_19_283
*732 FILLER_19_286
*733 FILLER_19_294
*734 FILLER_19_298
*735 FILLER_19_301
*736 FILLER_19_309
*737 FILLER_19_326
*738 FILLER_19_330
*739 FILLER_19_334
*740 FILLER_19_350
*741 FILLER_19_354
*742 FILLER_19_357
*743 FILLER_19_389
*744 FILLER_19_397
*745 FILLER_19_403
*746 FILLER_19_419
*747 FILLER_19_66
*748 FILLER_19_70
*749 FILLER_19_73
*750 FILLER_1_137
*751 FILLER_1_141
*752 FILLER_1_144
*753 FILLER_1_160
*754 FILLER_1_168
*755 FILLER_1_198
*756 FILLER_1_2
*757 FILLER_1_202
*758 FILLER_1_206
*759 FILLER_1_210
*760 FILLER_1_212
*761 FILLER_1_215
*762 FILLER_1_245
*763 FILLER_1_251
*764 FILLER_1_255
*765 FILLER_1_271
*766 FILLER_1_279
*767 FILLER_1_283
*768 FILLER_1_286
*769 FILLER_1_289
*770 FILLER_1_291
*771 FILLER_1_294
*772 FILLER_1_325
*773 FILLER_1_333
*774 FILLER_1_337
*775 FILLER_1_345
*776 FILLER_1_348
*777 FILLER_1_352
*778 FILLER_1_354
*779 FILLER_1_357
*780 FILLER_1_360
*781 FILLER_1_364
*782 FILLER_1_370
*783 FILLER_1_402
*784 FILLER_1_406
*785 FILLER_1_408
*786 FILLER_1_411
*787 FILLER_1_419
*788 FILLER_1_5
*789 FILLER_1_69
*790 FILLER_1_73
*791 FILLER_20_101
*792 FILLER_20_105
*793 FILLER_20_108
*794 FILLER_20_172
*795 FILLER_20_176
*796 FILLER_20_179
*797 FILLER_20_2
*798 FILLER_20_243
*799 FILLER_20_247
*800 FILLER_20_250
*801 FILLER_20_258
*802 FILLER_20_262
*803 FILLER_20_269
*804 FILLER_20_285
*805 FILLER_20_287
*806 FILLER_20_290
*807 FILLER_20_297
*808 FILLER_20_301
*809 FILLER_20_305
*810 FILLER_20_309
*811 FILLER_20_313
*812 FILLER_20_315
*813 FILLER_20_318
*814 FILLER_20_321
*815 FILLER_20_337
*816 FILLER_20_34
*817 FILLER_20_369
*818 FILLER_20_37
*819 FILLER_20_385
*820 FILLER_20_389
*821 FILLER_20_392
*822 FILLER_20_400
*823 FILLER_20_403
*824 FILLER_20_419
*825 FILLER_21_137
*826 FILLER_21_141
*827 FILLER_21_144
*828 FILLER_21_2
*829 FILLER_21_208
*830 FILLER_21_212
*831 FILLER_21_215
*832 FILLER_21_247
*833 FILLER_21_249
*834 FILLER_21_252
*835 FILLER_21_268
*836 FILLER_21_272
*837 FILLER_21_274
*838 FILLER_21_281
*839 FILLER_21_283
*840 FILLER_21_286
*841 FILLER_21_293
*842 FILLER_21_301
*843 FILLER_21_311
*844 FILLER_21_315
*845 FILLER_21_332
*846 FILLER_21_336
*847 FILLER_21_339
*848 FILLER_21_357
*849 FILLER_21_389
*850 FILLER_21_405
*851 FILLER_21_413
*852 FILLER_21_417
*853 FILLER_21_419
*854 FILLER_21_66
*855 FILLER_21_70
*856 FILLER_21_73
*857 FILLER_22_101
*858 FILLER_22_105
*859 FILLER_22_108
*860 FILLER_22_172
*861 FILLER_22_176
*862 FILLER_22_179
*863 FILLER_22_2
*864 FILLER_22_243
*865 FILLER_22_247
*866 FILLER_22_250
*867 FILLER_22_267
*868 FILLER_22_271
*869 FILLER_22_279
*870 FILLER_22_289
*871 FILLER_22_305
*872 FILLER_22_309
*873 FILLER_22_311
*874 FILLER_22_314
*875 FILLER_22_318
*876 FILLER_22_321
*877 FILLER_22_337
*878 FILLER_22_34
*879 FILLER_22_346
*880 FILLER_22_354
*881 FILLER_22_37
*882 FILLER_22_386
*883 FILLER_22_392
*884 FILLER_22_400
*885 FILLER_22_403
*886 FILLER_22_419
*887 FILLER_23_137
*888 FILLER_23_141
*889 FILLER_23_144
*890 FILLER_23_2
*891 FILLER_23_208
*892 FILLER_23_212
*893 FILLER_23_215
*894 FILLER_23_279
*895 FILLER_23_283
*896 FILLER_23_286
*897 FILLER_23_302
*898 FILLER_23_310
*899 FILLER_23_312
*900 FILLER_23_315
*901 FILLER_23_319
*902 FILLER_23_336
*903 FILLER_23_352
*904 FILLER_23_354
*905 FILLER_23_357
*906 FILLER_23_389
*907 FILLER_23_405
*908 FILLER_23_413
*909 FILLER_23_417
*910 FILLER_23_419
*911 FILLER_23_66
*912 FILLER_23_70
*913 FILLER_23_73
*914 FILLER_24_101
*915 FILLER_24_105
*916 FILLER_24_108
*917 FILLER_24_172
*918 FILLER_24_176
*919 FILLER_24_179
*920 FILLER_24_2
*921 FILLER_24_211
*922 FILLER_24_227
*923 FILLER_24_23
*924 FILLER_24_235
*925 FILLER_24_243
*926 FILLER_24_247
*927 FILLER_24_250
*928 FILLER_24_31
*929 FILLER_24_314
*930 FILLER_24_318
*931 FILLER_24_321
*932 FILLER_24_325
*933 FILLER_24_331
*934 FILLER_24_335
*935 FILLER_24_367
*936 FILLER_24_37
*937 FILLER_24_383
*938 FILLER_24_387
*939 FILLER_24_389
*940 FILLER_24_392
*941 FILLER_24_400
*942 FILLER_24_403
*943 FILLER_24_419
*944 FILLER_24_7
*945 FILLER_25_137
*946 FILLER_25_141
*947 FILLER_25_144
*948 FILLER_25_2
*949 FILLER_25_208
*950 FILLER_25_212
*951 FILLER_25_215
*952 FILLER_25_279
*953 FILLER_25_283
*954 FILLER_25_286
*955 FILLER_25_302
*956 FILLER_25_310
*957 FILLER_25_314
*958 FILLER_25_316
*959 FILLER_25_319
*960 FILLER_25_323
*961 FILLER_25_340
*962 FILLER_25_348
*963 FILLER_25_352
*964 FILLER_25_354
*965 FILLER_25_357
*966 FILLER_25_389
*967 FILLER_25_405
*968 FILLER_25_413
*969 FILLER_25_417
*970 FILLER_25_419
*971 FILLER_25_66
*972 FILLER_25_70
*973 FILLER_25_73
*974 FILLER_26_101
*975 FILLER_26_105
*976 FILLER_26_108
*977 FILLER_26_172
*978 FILLER_26_176
*979 FILLER_26_179
*980 FILLER_26_2
*981 FILLER_26_243
*982 FILLER_26_247
*983 FILLER_26_250
*984 FILLER_26_314
*985 FILLER_26_318
*986 FILLER_26_321
*987 FILLER_26_34
*988 FILLER_26_340
*989 FILLER_26_344
*990 FILLER_26_346
*991 FILLER_26_355
*992 FILLER_26_37
*993 FILLER_26_387
*994 FILLER_26_389
*995 FILLER_26_392
*996 FILLER_26_400
*997 FILLER_26_403
*998 FILLER_26_419
*999 FILLER_27_137
*1000 FILLER_27_141
*1001 FILLER_27_144
*1002 FILLER_27_2
*1003 FILLER_27_208
*1004 FILLER_27_212
*1005 FILLER_27_215
*1006 FILLER_27_279
*1007 FILLER_27_283
*1008 FILLER_27_286
*1009 FILLER_27_320
*1010 FILLER_27_324
*1011 FILLER_27_341
*1012 FILLER_27_349
*1013 FILLER_27_353
*1014 FILLER_27_357
*1015 FILLER_27_389
*1016 FILLER_27_405
*1017 FILLER_27_413
*1018 FILLER_27_417
*1019 FILLER_27_419
*1020 FILLER_27_66
*1021 FILLER_27_70
*1022 FILLER_27_73
*1023 FILLER_28_101
*1024 FILLER_28_105
*1025 FILLER_28_108
*1026 FILLER_28_172
*1027 FILLER_28_176
*1028 FILLER_28_179
*1029 FILLER_28_2
*1030 FILLER_28_243
*1031 FILLER_28_247
*1032 FILLER_28_250
*1033 FILLER_28_314
*1034 FILLER_28_318
*1035 FILLER_28_321
*1036 FILLER_28_337
*1037 FILLER_28_34
*1038 FILLER_28_345
*1039 FILLER_28_354
*1040 FILLER_28_37
*1041 FILLER_28_386
*1042 FILLER_28_392
*1043 FILLER_28_400
*1044 FILLER_28_403
*1045 FILLER_28_419
*1046 FILLER_29_137
*1047 FILLER_29_141
*1048 FILLER_29_144
*1049 FILLER_29_2
*1050 FILLER_29_208
*1051 FILLER_29_212
*1052 FILLER_29_215
*1053 FILLER_29_279
*1054 FILLER_29_283
*1055 FILLER_29_286
*1056 FILLER_29_318
*1057 FILLER_29_321
*1058 FILLER_29_325
*1059 FILLER_29_342
*1060 FILLER_29_350
*1061 FILLER_29_354
*1062 FILLER_29_357
*1063 FILLER_29_389
*1064 FILLER_29_405
*1065 FILLER_29_413
*1066 FILLER_29_417
*1067 FILLER_29_419
*1068 FILLER_29_66
*1069 FILLER_29_70
*1070 FILLER_29_73
*1071 FILLER_2_101
*1072 FILLER_2_105
*1073 FILLER_2_108
*1074 FILLER_2_124
*1075 FILLER_2_132
*1076 FILLER_2_136
*1077 FILLER_2_140
*1078 FILLER_2_171
*1079 FILLER_2_175
*1080 FILLER_2_179
*1081 FILLER_2_187
*1082 FILLER_2_191
*1083 FILLER_2_2
*1084 FILLER_2_242
*1085 FILLER_2_246
*1086 FILLER_2_250
*1087 FILLER_2_280
*1088 FILLER_2_284
*1089 FILLER_2_288
*1090 FILLER_2_318
*1091 FILLER_2_321
*1092 FILLER_2_34
*1093 FILLER_2_351
*1094 FILLER_2_368
*1095 FILLER_2_37
*1096 FILLER_2_376
*1097 FILLER_2_380
*1098 FILLER_2_388
*1099 FILLER_2_392
*1100 FILLER_2_400
*1101 FILLER_2_403
*1102 FILLER_2_419
*1103 FILLER_30_101
*1104 FILLER_30_105
*1105 FILLER_30_108
*1106 FILLER_30_172
*1107 FILLER_30_176
*1108 FILLER_30_179
*1109 FILLER_30_2
*1110 FILLER_30_243
*1111 FILLER_30_247
*1112 FILLER_30_250
*1113 FILLER_30_314
*1114 FILLER_30_318
*1115 FILLER_30_321
*1116 FILLER_30_329
*1117 FILLER_30_333
*1118 FILLER_30_336
*1119 FILLER_30_34
*1120 FILLER_30_340
*1121 FILLER_30_349
*1122 FILLER_30_37
*1123 FILLER_30_381
*1124 FILLER_30_389
*1125 FILLER_30_392
*1126 FILLER_30_400
*1127 FILLER_30_403
*1128 FILLER_30_419
*1129 FILLER_31_137
*1130 FILLER_31_141
*1131 FILLER_31_144
*1132 FILLER_31_2
*1133 FILLER_31_208
*1134 FILLER_31_212
*1135 FILLER_31_215
*1136 FILLER_31_279
*1137 FILLER_31_283
*1138 FILLER_31_286
*1139 FILLER_31_302
*1140 FILLER_31_310
*1141 FILLER_31_313
*1142 FILLER_31_317
*1143 FILLER_31_334
*1144 FILLER_31_344
*1145 FILLER_31_352
*1146 FILLER_31_354
*1147 FILLER_31_357
*1148 FILLER_31_389
*1149 FILLER_31_405
*1150 FILLER_31_413
*1151 FILLER_31_417
*1152 FILLER_31_419
*1153 FILLER_31_5
*1154 FILLER_31_69
*1155 FILLER_31_73
*1156 FILLER_32_101
*1157 FILLER_32_105
*1158 FILLER_32_108
*1159 FILLER_32_172
*1160 FILLER_32_176
*1161 FILLER_32_179
*1162 FILLER_32_2
*1163 FILLER_32_243
*1164 FILLER_32_247
*1165 FILLER_32_25
*1166 FILLER_32_250
*1167 FILLER_32_314
*1168 FILLER_32_318
*1169 FILLER_32_321
*1170 FILLER_32_33
*1171 FILLER_32_340
*1172 FILLER_32_344
*1173 FILLER_32_348
*1174 FILLER_32_37
*1175 FILLER_32_380
*1176 FILLER_32_388
*1177 FILLER_32_392
*1178 FILLER_32_400
*1179 FILLER_32_403
*1180 FILLER_32_419
*1181 FILLER_32_9
*1182 FILLER_33_137
*1183 FILLER_33_141
*1184 FILLER_33_144
*1185 FILLER_33_2
*1186 FILLER_33_208
*1187 FILLER_33_212
*1188 FILLER_33_215
*1189 FILLER_33_279
*1190 FILLER_33_283
*1191 FILLER_33_286
*1192 FILLER_33_302
*1193 FILLER_33_310
*1194 FILLER_33_314
*1195 FILLER_33_316
*1196 FILLER_33_319
*1197 FILLER_33_323
*1198 FILLER_33_340
*1199 FILLER_33_344
*1200 FILLER_33_352
*1201 FILLER_33_354
*1202 FILLER_33_357
*1203 FILLER_33_389
*1204 FILLER_33_397
*1205 FILLER_33_403
*1206 FILLER_33_419
*1207 FILLER_33_66
*1208 FILLER_33_70
*1209 FILLER_33_73
*1210 FILLER_34_101
*1211 FILLER_34_105
*1212 FILLER_34_108
*1213 FILLER_34_172
*1214 FILLER_34_176
*1215 FILLER_34_179
*1216 FILLER_34_2
*1217 FILLER_34_243
*1218 FILLER_34_247
*1219 FILLER_34_250
*1220 FILLER_34_314
*1221 FILLER_34_318
*1222 FILLER_34_321
*1223 FILLER_34_34
*1224 FILLER_34_37
*1225 FILLER_34_385
*1226 FILLER_34_389
*1227 FILLER_34_392
*1228 FILLER_34_408
*1229 FILLER_34_416
*1230 FILLER_35_137
*1231 FILLER_35_141
*1232 FILLER_35_144
*1233 FILLER_35_2
*1234 FILLER_35_208
*1235 FILLER_35_212
*1236 FILLER_35_215
*1237 FILLER_35_279
*1238 FILLER_35_283
*1239 FILLER_35_286
*1240 FILLER_35_350
*1241 FILLER_35_354
*1242 FILLER_35_357
*1243 FILLER_35_389
*1244 FILLER_35_397
*1245 FILLER_35_403
*1246 FILLER_35_419
*1247 FILLER_35_66
*1248 FILLER_35_70
*1249 FILLER_35_73
*1250 FILLER_36_101
*1251 FILLER_36_105
*1252 FILLER_36_108
*1253 FILLER_36_172
*1254 FILLER_36_176
*1255 FILLER_36_179
*1256 FILLER_36_2
*1257 FILLER_36_243
*1258 FILLER_36_247
*1259 FILLER_36_250
*1260 FILLER_36_314
*1261 FILLER_36_318
*1262 FILLER_36_321
*1263 FILLER_36_34
*1264 FILLER_36_37
*1265 FILLER_36_385
*1266 FILLER_36_389
*1267 FILLER_36_392
*1268 FILLER_36_408
*1269 FILLER_36_416
*1270 FILLER_37_137
*1271 FILLER_37_141
*1272 FILLER_37_144
*1273 FILLER_37_2
*1274 FILLER_37_208
*1275 FILLER_37_212
*1276 FILLER_37_215
*1277 FILLER_37_279
*1278 FILLER_37_283
*1279 FILLER_37_286
*1280 FILLER_37_350
*1281 FILLER_37_354
*1282 FILLER_37_357
*1283 FILLER_37_389
*1284 FILLER_37_397
*1285 FILLER_37_403
*1286 FILLER_37_419
*1287 FILLER_37_66
*1288 FILLER_37_70
*1289 FILLER_37_73
*1290 FILLER_38_101
*1291 FILLER_38_105
*1292 FILLER_38_108
*1293 FILLER_38_172
*1294 FILLER_38_176
*1295 FILLER_38_179
*1296 FILLER_38_2
*1297 FILLER_38_243
*1298 FILLER_38_247
*1299 FILLER_38_250
*1300 FILLER_38_314
*1301 FILLER_38_318
*1302 FILLER_38_321
*1303 FILLER_38_34
*1304 FILLER_38_37
*1305 FILLER_38_385
*1306 FILLER_38_389
*1307 FILLER_38_392
*1308 FILLER_38_408
*1309 FILLER_38_416
*1310 FILLER_39_137
*1311 FILLER_39_141
*1312 FILLER_39_144
*1313 FILLER_39_2
*1314 FILLER_39_208
*1315 FILLER_39_212
*1316 FILLER_39_215
*1317 FILLER_39_279
*1318 FILLER_39_283
*1319 FILLER_39_286
*1320 FILLER_39_350
*1321 FILLER_39_354
*1322 FILLER_39_357
*1323 FILLER_39_389
*1324 FILLER_39_397
*1325 FILLER_39_403
*1326 FILLER_39_419
*1327 FILLER_39_66
*1328 FILLER_39_70
*1329 FILLER_39_73
*1330 FILLER_3_128
*1331 FILLER_3_132
*1332 FILLER_3_136
*1333 FILLER_3_140
*1334 FILLER_3_144
*1335 FILLER_3_2
*1336 FILLER_3_208
*1337 FILLER_3_212
*1338 FILLER_3_215
*1339 FILLER_3_245
*1340 FILLER_3_249
*1341 FILLER_3_253
*1342 FILLER_3_269
*1343 FILLER_3_277
*1344 FILLER_3_281
*1345 FILLER_3_283
*1346 FILLER_3_286
*1347 FILLER_3_294
*1348 FILLER_3_298
*1349 FILLER_3_301
*1350 FILLER_3_332
*1351 FILLER_3_334
*1352 FILLER_3_350
*1353 FILLER_3_354
*1354 FILLER_3_357
*1355 FILLER_3_373
*1356 FILLER_3_381
*1357 FILLER_3_389
*1358 FILLER_3_405
*1359 FILLER_3_413
*1360 FILLER_3_417
*1361 FILLER_3_419
*1362 FILLER_3_66
*1363 FILLER_3_70
*1364 FILLER_3_73
*1365 FILLER_3_89
*1366 FILLER_3_97
*1367 FILLER_40_101
*1368 FILLER_40_105
*1369 FILLER_40_108
*1370 FILLER_40_172
*1371 FILLER_40_176
*1372 FILLER_40_179
*1373 FILLER_40_2
*1374 FILLER_40_23
*1375 FILLER_40_243
*1376 FILLER_40_247
*1377 FILLER_40_250
*1378 FILLER_40_31
*1379 FILLER_40_314
*1380 FILLER_40_318
*1381 FILLER_40_321
*1382 FILLER_40_37
*1383 FILLER_40_385
*1384 FILLER_40_389
*1385 FILLER_40_392
*1386 FILLER_40_408
*1387 FILLER_40_416
*1388 FILLER_40_7
*1389 FILLER_41_137
*1390 FILLER_41_141
*1391 FILLER_41_144
*1392 FILLER_41_2
*1393 FILLER_41_208
*1394 FILLER_41_212
*1395 FILLER_41_215
*1396 FILLER_41_279
*1397 FILLER_41_283
*1398 FILLER_41_286
*1399 FILLER_41_350
*1400 FILLER_41_354
*1401 FILLER_41_357
*1402 FILLER_41_389
*1403 FILLER_41_397
*1404 FILLER_41_403
*1405 FILLER_41_419
*1406 FILLER_41_66
*1407 FILLER_41_70
*1408 FILLER_41_73
*1409 FILLER_42_101
*1410 FILLER_42_105
*1411 FILLER_42_108
*1412 FILLER_42_140
*1413 FILLER_42_142
*1414 FILLER_42_145
*1415 FILLER_42_153
*1416 FILLER_42_169
*1417 FILLER_42_179
*1418 FILLER_42_2
*1419 FILLER_42_243
*1420 FILLER_42_247
*1421 FILLER_42_250
*1422 FILLER_42_314
*1423 FILLER_42_318
*1424 FILLER_42_321
*1425 FILLER_42_34
*1426 FILLER_42_37
*1427 FILLER_42_385
*1428 FILLER_42_389
*1429 FILLER_42_392
*1430 FILLER_42_408
*1431 FILLER_42_416
*1432 FILLER_43_137
*1433 FILLER_43_141
*1434 FILLER_43_144
*1435 FILLER_43_2
*1436 FILLER_43_208
*1437 FILLER_43_212
*1438 FILLER_43_215
*1439 FILLER_43_279
*1440 FILLER_43_283
*1441 FILLER_43_286
*1442 FILLER_43_350
*1443 FILLER_43_354
*1444 FILLER_43_357
*1445 FILLER_43_389
*1446 FILLER_43_397
*1447 FILLER_43_403
*1448 FILLER_43_419
*1449 FILLER_43_66
*1450 FILLER_43_70
*1451 FILLER_43_73
*1452 FILLER_44_101
*1453 FILLER_44_105
*1454 FILLER_44_108
*1455 FILLER_44_172
*1456 FILLER_44_176
*1457 FILLER_44_179
*1458 FILLER_44_2
*1459 FILLER_44_243
*1460 FILLER_44_247
*1461 FILLER_44_250
*1462 FILLER_44_314
*1463 FILLER_44_318
*1464 FILLER_44_321
*1465 FILLER_44_34
*1466 FILLER_44_37
*1467 FILLER_44_385
*1468 FILLER_44_389
*1469 FILLER_44_392
*1470 FILLER_44_408
*1471 FILLER_44_416
*1472 FILLER_45_137
*1473 FILLER_45_141
*1474 FILLER_45_144
*1475 FILLER_45_2
*1476 FILLER_45_208
*1477 FILLER_45_212
*1478 FILLER_45_215
*1479 FILLER_45_279
*1480 FILLER_45_283
*1481 FILLER_45_286
*1482 FILLER_45_350
*1483 FILLER_45_354
*1484 FILLER_45_357
*1485 FILLER_45_389
*1486 FILLER_45_397
*1487 FILLER_45_403
*1488 FILLER_45_419
*1489 FILLER_45_66
*1490 FILLER_45_70
*1491 FILLER_45_73
*1492 FILLER_46_101
*1493 FILLER_46_105
*1494 FILLER_46_108
*1495 FILLER_46_172
*1496 FILLER_46_176
*1497 FILLER_46_179
*1498 FILLER_46_2
*1499 FILLER_46_243
*1500 FILLER_46_247
*1501 FILLER_46_250
*1502 FILLER_46_314
*1503 FILLER_46_318
*1504 FILLER_46_321
*1505 FILLER_46_34
*1506 FILLER_46_37
*1507 FILLER_46_385
*1508 FILLER_46_389
*1509 FILLER_46_392
*1510 FILLER_46_400
*1511 FILLER_46_403
*1512 FILLER_46_419
*1513 FILLER_47_137
*1514 FILLER_47_141
*1515 FILLER_47_144
*1516 FILLER_47_2
*1517 FILLER_47_208
*1518 FILLER_47_212
*1519 FILLER_47_215
*1520 FILLER_47_279
*1521 FILLER_47_283
*1522 FILLER_47_286
*1523 FILLER_47_350
*1524 FILLER_47_354
*1525 FILLER_47_357
*1526 FILLER_47_389
*1527 FILLER_47_405
*1528 FILLER_47_413
*1529 FILLER_47_417
*1530 FILLER_47_419
*1531 FILLER_47_66
*1532 FILLER_47_70
*1533 FILLER_47_73
*1534 FILLER_48_101
*1535 FILLER_48_105
*1536 FILLER_48_108
*1537 FILLER_48_17
*1538 FILLER_48_172
*1539 FILLER_48_176
*1540 FILLER_48_179
*1541 FILLER_48_2
*1542 FILLER_48_21
*1543 FILLER_48_243
*1544 FILLER_48_247
*1545 FILLER_48_250
*1546 FILLER_48_29
*1547 FILLER_48_314
*1548 FILLER_48_318
*1549 FILLER_48_321
*1550 FILLER_48_33
*1551 FILLER_48_37
*1552 FILLER_48_385
*1553 FILLER_48_389
*1554 FILLER_48_392
*1555 FILLER_48_400
*1556 FILLER_48_403
*1557 FILLER_48_419
*1558 FILLER_49_137
*1559 FILLER_49_141
*1560 FILLER_49_144
*1561 FILLER_49_2
*1562 FILLER_49_208
*1563 FILLER_49_212
*1564 FILLER_49_215
*1565 FILLER_49_279
*1566 FILLER_49_283
*1567 FILLER_49_286
*1568 FILLER_49_350
*1569 FILLER_49_354
*1570 FILLER_49_357
*1571 FILLER_49_389
*1572 FILLER_49_405
*1573 FILLER_49_413
*1574 FILLER_49_417
*1575 FILLER_49_419
*1576 FILLER_49_66
*1577 FILLER_49_70
*1578 FILLER_49_73