*SPEF "ieee 1481-1999"
*DESIGN "user_proj_example"
*DATE "11:11:11 Fri 11 11, 1111"
*VENDOR "OpenRCX"
*PROGRAM "Parallel Extraction"
*VERSION "1.0"
*DESIGN_FLOW "NAME_SCOPE LOCAL" "PIN_CAP NONE"
*DIVIDER /
*DELIMITER :
*BUS_DELIMITER []
*T_UNIT 1 NS
*C_UNIT 1 PF
*R_UNIT 1 OHM
*L_UNIT 1 HENRY

*NAME_MAP
*1 io_in[0]
*2 io_in[10]
*3 io_in[11]
*4 io_in[12]
*5 io_in[13]
*6 io_in[14]
*7 io_in[15]
*8 io_in[16]
*9 io_in[17]
*10 io_in[18]
*11 io_in[19]
*12 io_in[1]
*13 io_in[20]
*14 io_in[21]
*15 io_in[22]
*16 io_in[23]
*17 io_in[24]
*18 io_in[25]
*19 io_in[26]
*20 io_in[27]
*21 io_in[28]
*22 io_in[29]
*23 io_in[2]
*24 io_in[30]
*25 io_in[31]
*26 io_in[32]
*27 io_in[33]
*28 io_in[34]
*29 io_in[35]
*30 io_in[36]
*31 io_in[37]
*32 io_in[3]
*33 io_in[4]
*34 io_in[5]
*35 io_in[6]
*36 io_in[7]
*37 io_in[8]
*38 io_in[9]
*39 io_oeb[0]
*40 io_oeb[10]
*41 io_oeb[11]
*42 io_oeb[12]
*43 io_oeb[13]
*44 io_oeb[14]
*45 io_oeb[15]
*46 io_oeb[16]
*47 io_oeb[17]
*48 io_oeb[18]
*49 io_oeb[19]
*50 io_oeb[1]
*51 io_oeb[20]
*52 io_oeb[21]
*53 io_oeb[22]
*54 io_oeb[23]
*55 io_oeb[24]
*56 io_oeb[25]
*57 io_oeb[26]
*58 io_oeb[27]
*59 io_oeb[28]
*60 io_oeb[29]
*61 io_oeb[2]
*62 io_oeb[30]
*63 io_oeb[31]
*64 io_oeb[32]
*65 io_oeb[33]
*66 io_oeb[34]
*67 io_oeb[35]
*68 io_oeb[36]
*69 net243
*70 io_oeb[3]
*71 io_oeb[4]
*72 io_oeb[5]
*73 io_oeb[6]
*74 io_oeb[7]
*75 io_oeb[8]
*76 io_oeb[9]
*77 io_out[0]
*78 io_out[10]
*79 io_out[11]
*80 io_out[12]
*81 io_out[13]
*82 io_out[14]
*83 io_out[15]
*84 io_out[16]
*85 io_out[17]
*86 io_out[18]
*87 io_out[19]
*88 io_out[1]
*89 io_out[20]
*90 io_out[21]
*91 io_out[22]
*92 io_out[23]
*93 io_out[24]
*94 io_out[25]
*95 io_out[26]
*96 io_out[27]
*97 io_out[28]
*98 io_out[29]
*99 io_out[2]
*100 io_out[30]
*101 io_out[31]
*102 net244
*103 net245
*104 net246
*105 net247
*106 net248
*107 net249
*108 io_out[3]
*109 io_out[4]
*110 io_out[5]
*111 io_out[6]
*112 io_out[7]
*113 io_out[8]
*114 io_out[9]
*115 net250
*116 net251
*117 net252
*118 la_data_in[0]
*119 la_data_in[100]
*120 la_data_in[101]
*121 la_data_in[102]
*122 la_data_in[103]
*123 la_data_in[104]
*124 la_data_in[105]
*125 la_data_in[106]
*126 la_data_in[107]
*127 la_data_in[108]
*128 la_data_in[109]
*129 la_data_in[10]
*130 la_data_in[110]
*131 la_data_in[111]
*132 la_data_in[112]
*133 la_data_in[113]
*134 la_data_in[114]
*135 la_data_in[115]
*136 la_data_in[116]
*137 la_data_in[117]
*138 la_data_in[118]
*139 la_data_in[119]
*140 la_data_in[11]
*141 la_data_in[120]
*142 la_data_in[121]
*143 la_data_in[122]
*144 la_data_in[123]
*145 la_data_in[124]
*146 la_data_in[125]
*147 la_data_in[126]
*148 la_data_in[127]
*149 la_data_in[12]
*150 la_data_in[13]
*151 la_data_in[14]
*152 la_data_in[15]
*153 la_data_in[16]
*154 la_data_in[17]
*155 la_data_in[18]
*156 la_data_in[19]
*157 la_data_in[1]
*158 la_data_in[20]
*159 la_data_in[21]
*160 la_data_in[22]
*161 la_data_in[23]
*162 la_data_in[24]
*163 la_data_in[25]
*164 la_data_in[26]
*165 la_data_in[27]
*166 la_data_in[28]
*167 la_data_in[29]
*168 la_data_in[2]
*169 la_data_in[30]
*170 la_data_in[31]
*171 la_data_in[32]
*172 la_data_in[33]
*173 la_data_in[34]
*174 la_data_in[35]
*175 la_data_in[36]
*176 la_data_in[37]
*177 la_data_in[38]
*178 la_data_in[39]
*179 la_data_in[3]
*180 la_data_in[40]
*181 la_data_in[41]
*182 la_data_in[42]
*183 la_data_in[43]
*184 la_data_in[44]
*185 la_data_in[45]
*186 la_data_in[46]
*187 la_data_in[47]
*188 la_data_in[48]
*189 la_data_in[49]
*190 la_data_in[4]
*191 la_data_in[50]
*192 la_data_in[51]
*193 la_data_in[52]
*194 la_data_in[53]
*195 la_data_in[54]
*196 la_data_in[55]
*197 la_data_in[56]
*198 la_data_in[57]
*199 la_data_in[58]
*200 la_data_in[59]
*201 la_data_in[5]
*202 la_data_in[60]
*203 la_data_in[61]
*204 la_data_in[62]
*205 la_data_in[63]
*206 la_data_in[64]
*207 la_data_in[65]
*208 la_data_in[66]
*209 la_data_in[67]
*210 la_data_in[68]
*211 la_data_in[69]
*212 la_data_in[6]
*213 la_data_in[70]
*214 la_data_in[71]
*215 la_data_in[72]
*216 la_data_in[73]
*217 la_data_in[74]
*218 la_data_in[75]
*219 la_data_in[76]
*220 la_data_in[77]
*221 la_data_in[78]
*222 la_data_in[79]
*223 la_data_in[7]
*224 la_data_in[80]
*225 la_data_in[81]
*226 la_data_in[82]
*227 la_data_in[83]
*228 la_data_in[84]
*229 la_data_in[85]
*230 la_data_in[86]
*231 la_data_in[87]
*232 la_data_in[88]
*233 la_data_in[89]
*234 la_data_in[8]
*235 la_data_in[90]
*236 la_data_in[91]
*237 la_data_in[92]
*238 la_data_in[93]
*239 la_data_in[94]
*240 la_data_in[95]
*241 la_data_in[96]
*242 la_data_in[97]
*243 la_data_in[98]
*244 la_data_in[99]
*245 la_data_in[9]
*246 la_data_out[0]
*247 net321
*248 net322
*249 net323
*250 net324
*251 net325
*252 net326
*253 net327
*254 net328
*255 net329
*256 net330
*257 la_data_out[10]
*258 net331
*259 net332
*260 net333
*261 net334
*262 net335
*263 net336
*264 net337
*265 net338
*266 net339
*267 net340
*268 la_data_out[11]
*269 net341
*270 net342
*271 net343
*272 net344
*273 net345
*274 net346
*275 net347
*276 net348
*277 la_data_out[12]
*278 la_data_out[13]
*279 la_data_out[14]
*280 la_data_out[15]
*281 la_data_out[16]
*282 la_data_out[17]
*283 la_data_out[18]
*284 la_data_out[19]
*285 la_data_out[1]
*286 la_data_out[20]
*287 la_data_out[21]
*288 la_data_out[22]
*289 la_data_out[23]
*290 la_data_out[24]
*291 la_data_out[25]
*292 la_data_out[26]
*293 la_data_out[27]
*294 la_data_out[28]
*295 la_data_out[29]
*296 la_data_out[2]
*297 la_data_out[30]
*298 la_data_out[31]
*299 net253
*300 net254
*301 net255
*302 net256
*303 net257
*304 net258
*305 net259
*306 net260
*307 la_data_out[3]
*308 net261
*309 net262
*310 net263
*311 net264
*312 net265
*313 net266
*314 net267
*315 net268
*316 net269
*317 net270
*318 la_data_out[4]
*319 net271
*320 net272
*321 net273
*322 net274
*323 net275
*324 net276
*325 net277
*326 net278
*327 net279
*328 net280
*329 la_data_out[5]
*330 net281
*331 net282
*332 net283
*333 net284
*334 net285
*335 net286
*336 net287
*337 net288
*338 net289
*339 net290
*340 la_data_out[6]
*341 net291
*342 net292
*343 net293
*344 net294
*345 net295
*346 net296
*347 net297
*348 net298
*349 net299
*350 net300
*351 la_data_out[7]
*352 net301
*353 net302
*354 net303
*355 net304
*356 net305
*357 net306
*358 net307
*359 net308
*360 net309
*361 net310
*362 la_data_out[8]
*363 net311
*364 net312
*365 net313
*366 net314
*367 net315
*368 net316
*369 net317
*370 net318
*371 net319
*372 net320
*373 la_data_out[9]
*374 la_oenb[0]
*375 la_oenb[100]
*376 la_oenb[101]
*377 la_oenb[102]
*378 la_oenb[103]
*379 la_oenb[104]
*380 la_oenb[105]
*381 la_oenb[106]
*382 la_oenb[107]
*383 la_oenb[108]
*384 la_oenb[109]
*385 la_oenb[10]
*386 la_oenb[110]
*387 la_oenb[111]
*388 la_oenb[112]
*389 la_oenb[113]
*390 la_oenb[114]
*391 la_oenb[115]
*392 la_oenb[116]
*393 la_oenb[117]
*394 la_oenb[118]
*395 la_oenb[119]
*396 la_oenb[11]
*397 la_oenb[120]
*398 la_oenb[121]
*399 la_oenb[122]
*400 la_oenb[123]
*401 la_oenb[124]
*402 la_oenb[125]
*403 la_oenb[126]
*404 la_oenb[127]
*405 la_oenb[12]
*406 la_oenb[13]
*407 la_oenb[14]
*408 la_oenb[15]
*409 la_oenb[16]
*410 la_oenb[17]
*411 la_oenb[18]
*412 la_oenb[19]
*413 la_oenb[1]
*414 la_oenb[20]
*415 la_oenb[21]
*416 la_oenb[22]
*417 la_oenb[23]
*418 la_oenb[24]
*419 la_oenb[25]
*420 la_oenb[26]
*421 la_oenb[27]
*422 la_oenb[28]
*423 la_oenb[29]
*424 la_oenb[2]
*425 la_oenb[30]
*426 la_oenb[31]
*427 la_oenb[32]
*428 la_oenb[33]
*429 la_oenb[34]
*430 la_oenb[35]
*431 la_oenb[36]
*432 la_oenb[37]
*433 la_oenb[38]
*434 la_oenb[39]
*435 la_oenb[3]
*436 la_oenb[40]
*437 la_oenb[41]
*438 la_oenb[42]
*439 la_oenb[43]
*440 la_oenb[44]
*441 la_oenb[45]
*442 la_oenb[46]
*443 la_oenb[47]
*444 la_oenb[48]
*445 la_oenb[49]
*446 la_oenb[4]
*447 la_oenb[50]
*448 la_oenb[51]
*449 la_oenb[52]
*450 la_oenb[53]
*451 la_oenb[54]
*452 la_oenb[55]
*453 la_oenb[56]
*454 la_oenb[57]
*455 la_oenb[58]
*456 la_oenb[59]
*457 la_oenb[5]
*458 la_oenb[60]
*459 la_oenb[61]
*460 la_oenb[62]
*461 la_oenb[63]
*462 la_oenb[64]
*463 la_oenb[65]
*464 la_oenb[66]
*465 la_oenb[67]
*466 la_oenb[68]
*467 la_oenb[69]
*468 la_oenb[6]
*469 la_oenb[70]
*470 la_oenb[71]
*471 la_oenb[72]
*472 la_oenb[73]
*473 la_oenb[74]
*474 la_oenb[75]
*475 la_oenb[76]
*476 la_oenb[77]
*477 la_oenb[78]
*478 la_oenb[79]
*479 la_oenb[7]
*480 la_oenb[80]
*481 la_oenb[81]
*482 la_oenb[82]
*483 la_oenb[83]
*484 la_oenb[84]
*485 la_oenb[85]
*486 la_oenb[86]
*487 la_oenb[87]
*488 la_oenb[88]
*489 la_oenb[89]
*490 la_oenb[8]
*491 la_oenb[90]
*492 la_oenb[91]
*493 la_oenb[92]
*494 la_oenb[93]
*495 la_oenb[94]
*496 la_oenb[95]
*497 la_oenb[96]
*498 la_oenb[97]
*499 la_oenb[98]
*500 la_oenb[99]
*501 la_oenb[9]
*504 wb_clk_i
*505 wb_rst_i
*506 wbs_ack_o
*507 wbs_adr_i[0]
*508 wbs_adr_i[10]
*509 wbs_adr_i[11]
*510 wbs_adr_i[12]
*511 wbs_adr_i[13]
*512 wbs_adr_i[14]
*513 wbs_adr_i[15]
*514 wbs_adr_i[16]
*515 wbs_adr_i[17]
*516 wbs_adr_i[18]
*517 wbs_adr_i[19]
*518 wbs_adr_i[1]
*519 wbs_adr_i[20]
*520 wbs_adr_i[21]
*521 wbs_adr_i[22]
*522 wbs_adr_i[23]
*523 wbs_adr_i[24]
*524 wbs_adr_i[25]
*525 wbs_adr_i[26]
*526 wbs_adr_i[27]
*527 wbs_adr_i[28]
*528 wbs_adr_i[29]
*529 wbs_adr_i[2]
*530 wbs_adr_i[30]
*531 wbs_adr_i[31]
*532 wbs_adr_i[3]
*533 wbs_adr_i[4]
*534 wbs_adr_i[5]
*535 wbs_adr_i[6]
*536 wbs_adr_i[7]
*537 wbs_adr_i[8]
*538 wbs_adr_i[9]
*539 wbs_cyc_i
*540 wbs_dat_i[0]
*541 wbs_dat_i[10]
*542 wbs_dat_i[11]
*543 wbs_dat_i[12]
*544 wbs_dat_i[13]
*545 wbs_dat_i[14]
*546 wbs_dat_i[15]
*547 wbs_dat_i[16]
*548 wbs_dat_i[17]
*549 wbs_dat_i[18]
*550 wbs_dat_i[19]
*551 wbs_dat_i[1]
*552 wbs_dat_i[20]
*553 wbs_dat_i[21]
*554 wbs_dat_i[22]
*555 wbs_dat_i[23]
*556 wbs_dat_i[24]
*557 wbs_dat_i[25]
*558 wbs_dat_i[26]
*559 wbs_dat_i[27]
*560 wbs_dat_i[28]
*561 wbs_dat_i[29]
*562 wbs_dat_i[2]
*563 wbs_dat_i[30]
*564 wbs_dat_i[31]
*565 wbs_dat_i[3]
*566 wbs_dat_i[4]
*567 wbs_dat_i[5]
*568 wbs_dat_i[6]
*569 wbs_dat_i[7]
*570 wbs_dat_i[8]
*571 wbs_dat_i[9]
*572 wbs_dat_o[0]
*573 wbs_dat_o[10]
*574 wbs_dat_o[11]
*575 wbs_dat_o[12]
*576 wbs_dat_o[13]
*577 wbs_dat_o[14]
*578 wbs_dat_o[15]
*579 wbs_dat_o[16]
*580 wbs_dat_o[17]
*581 wbs_dat_o[18]
*582 wbs_dat_o[19]
*583 wbs_dat_o[1]
*584 wbs_dat_o[20]
*585 wbs_dat_o[21]
*586 wbs_dat_o[22]
*587 wbs_dat_o[23]
*588 wbs_dat_o[24]
*589 wbs_dat_o[25]
*590 wbs_dat_o[26]
*591 wbs_dat_o[27]
*592 wbs_dat_o[28]
*593 wbs_dat_o[29]
*594 wbs_dat_o[2]
*595 wbs_dat_o[30]
*596 wbs_dat_o[31]
*597 wbs_dat_o[3]
*598 wbs_dat_o[4]
*599 wbs_dat_o[5]
*600 wbs_dat_o[6]
*601 wbs_dat_o[7]
*602 wbs_dat_o[8]
*603 wbs_dat_o[9]
*604 wbs_sel_i[0]
*605 wbs_sel_i[1]
*606 wbs_sel_i[2]
*607 wbs_sel_i[3]
*608 wbs_stb_i
*609 wbs_we_i
*610 _000_
*611 _001_
*612 _002_
*613 _003_
*614 _004_
*615 _005_
*616 _006_
*617 _007_
*618 _008_
*619 _009_
*620 _010_
*621 _011_
*622 _012_
*623 _013_
*624 _014_
*625 _015_
*626 _016_
*627 _017_
*628 _018_
*629 _019_
*630 _020_
*631 _021_
*632 _022_
*633 _023_
*634 _024_
*635 _025_
*636 _026_
*637 _027_
*638 _028_
*639 _029_
*640 _030_
*641 _031_
*642 _032_
*643 _033_
*644 _034_
*645 _035_
*646 _036_
*647 _037_
*648 _038_
*649 _039_
*650 _040_
*651 _041_
*652 _042_
*653 _043_
*654 _044_
*655 _045_
*656 _046_
*657 _047_
*658 _048_
*659 _049_
*660 _050_
*661 _051_
*662 _052_
*663 _053_
*664 _054_
*665 _055_
*666 _056_
*667 _057_
*668 _058_
*669 _059_
*670 _060_
*671 _061_
*672 _062_
*673 _063_
*674 _064_
*675 _065_
*676 _066_
*677 _067_
*678 _068_
*679 _069_
*680 _070_
*681 _071_
*682 _072_
*683 _073_
*684 _074_
*685 _075_
*686 _076_
*687 _077_
*688 _078_
*689 _079_
*690 _080_
*691 _081_
*692 _082_
*693 _083_
*694 _084_
*695 _085_
*696 _086_
*697 _087_
*698 _088_
*699 _089_
*700 _090_
*701 _091_
*702 _092_
*703 _093_
*704 _094_
*705 _095_
*706 _096_
*707 _097_
*708 _098_
*709 _099_
*710 _100_
*711 _101_
*712 _102_
*713 _103_
*714 _104_
*715 _105_
*716 _106_
*717 _107_
*718 _108_
*719 _109_
*720 _110_
*721 _111_
*722 _112_
*723 _113_
*724 _114_
*725 _115_
*726 _116_
*727 _117_
*728 _118_
*729 _119_
*730 _120_
*731 _121_
*732 _122_
*733 _123_
*734 _124_
*735 _125_
*736 _126_
*737 _127_
*738 _128_
*739 _129_
*740 _130_
*741 _131_
*742 _132_
*743 _133_
*744 _134_
*745 _135_
*746 _136_
*747 _137_
*748 _138_
*749 _139_
*750 _140_
*751 _141_
*752 _142_
*753 _143_
*754 _144_
*755 _145_
*756 _146_
*757 _147_
*758 _148_
*759 _149_
*760 _150_
*761 _151_
*762 _152_
*763 _153_
*764 _154_
*765 _155_
*766 _156_
*767 _157_
*768 _158_
*769 _159_
*770 _160_
*771 _161_
*772 _162_
*773 _163_
*774 _164_
*775 _165_
*776 _166_
*777 _167_
*778 _168_
*779 _169_
*780 _170_
*781 _171_
*782 _172_
*783 _173_
*784 _174_
*785 _175_
*786 _176_
*787 _177_
*788 _178_
*789 _179_
*790 _180_
*791 _181_
*792 _182_
*793 _183_
*794 _184_
*795 _185_
*796 _186_
*797 _187_
*798 _188_
*799 _189_
*800 _190_
*801 _191_
*802 _192_
*803 _193_
*804 _194_
*805 _195_
*806 _196_
*807 _197_
*808 _198_
*809 _199_
*810 _200_
*811 _201_
*812 _202_
*813 _203_
*814 _204_
*815 _205_
*816 _206_
*817 _207_
*818 _208_
*819 _209_
*820 _210_
*821 _211_
*822 _212_
*823 _213_
*824 _214_
*825 _215_
*826 _216_
*827 _217_
*828 _218_
*829 _219_
*830 _220_
*831 _221_
*832 _222_
*833 _223_
*834 _224_
*835 _225_
*836 _226_
*837 _227_
*838 _228_
*839 _229_
*840 _230_
*841 _231_
*842 _232_
*843 _233_
*844 _234_
*845 _235_
*846 _236_
*847 _237_
*848 _238_
*849 _239_
*850 _240_
*851 _241_
*852 _242_
*853 _243_
*854 _244_
*855 _245_
*856 _246_
*857 _247_
*858 _248_
*859 _249_
*860 _250_
*861 _251_
*862 _252_
*863 _253_
*864 _254_
*865 _255_
*866 _256_
*867 _257_
*868 _258_
*869 _259_
*870 _260_
*871 _261_
*872 _262_
*873 _263_
*874 _264_
*875 _265_
*876 _266_
*877 _267_
*878 _268_
*879 _269_
*880 _270_
*881 _271_
*882 _272_
*883 _273_
*884 _274_
*885 _275_
*886 _276_
*887 _277_
*888 _278_
*889 _279_
*890 _280_
*891 _281_
*892 _282_
*893 _283_
*894 _284_
*895 _285_
*896 _286_
*897 _287_
*898 _288_
*899 _289_
*900 _290_
*901 _291_
*902 _292_
*903 _293_
*904 _294_
*905 _295_
*906 _296_
*907 _297_
*908 _298_
*909 _299_
*910 _300_
*911 _301_
*912 _302_
*913 _303_
*914 _304_
*915 _305_
*916 _306_
*917 _307_
*918 _308_
*919 _309_
*920 _310_
*921 _311_
*922 _312_
*923 _313_
*924 _314_
*925 _315_
*926 _316_
*927 _317_
*928 _318_
*929 _319_
*930 _320_
*931 _321_
*932 _322_
*933 _323_
*934 _324_
*935 _325_
*936 _326_
*937 _327_
*938 _328_
*939 _329_
*940 _330_
*941 _331_
*942 _332_
*943 _333_
*944 _334_
*945 _335_
*946 _336_
*947 _337_
*948 _338_
*949 _339_
*950 _340_
*951 _341_
*952 _342_
*953 _343_
*954 _344_
*955 _345_
*956 _346_
*957 clknet_0_counter\.clk
*958 clknet_3_0__leaf_counter\.clk
*959 clknet_3_1__leaf_counter\.clk
*960 clknet_3_2__leaf_counter\.clk
*961 clknet_3_3__leaf_counter\.clk
*962 clknet_3_4__leaf_counter\.clk
*963 clknet_3_5__leaf_counter\.clk
*964 clknet_3_6__leaf_counter\.clk
*965 clknet_3_7__leaf_counter\.clk
*966 counter\.clk
*967 net1
*968 net10
*969 net100
*970 net101
*971 net102
*972 net103
*973 net104
*974 net105
*975 net106
*976 net107
*977 net108
*978 net109
*979 net11
*980 net110
*981 net111
*982 net112
*983 net113
*984 net114
*985 net115
*986 net116
*987 net117
*988 net118
*989 net119
*990 net12
*991 net120
*992 net121
*993 net122
*994 net123
*995 net124
*996 net125
*997 net126
*998 net127
*999 net128
*1000 net129
*1001 net13
*1002 net130
*1003 net131
*1004 net132
*1005 net133
*1006 net134
*1007 net135
*1008 net136
*1009 net137
*1010 net138
*1011 net139
*1012 net14
*1013 net140
*1014 net141
*1015 net142
*1016 net143
*1017 net144
*1018 net145
*1019 net146
*1020 net147
*1021 net148
*1022 net149
*1023 net15
*1024 net150
*1025 net151
*1026 net152
*1027 net153
*1028 net154
*1029 net155
*1030 net156
*1031 net157
*1032 net158
*1033 net159
*1034 net16
*1035 net160
*1036 net161
*1037 net162
*1038 net163
*1039 net164
*1040 net165
*1041 net166
*1042 net167
*1043 net168
*1044 net169
*1045 net17
*1046 net170
*1047 net171
*1048 net172
*1049 net173
*1050 net174
*1051 net175
*1052 net176
*1053 net177
*1054 net178
*1055 net179
*1056 net18
*1057 net180
*1058 net181
*1059 net182
*1060 net183
*1061 net184
*1062 net185
*1063 net186
*1064 net187
*1065 net188
*1066 net189
*1067 net19
*1068 net190
*1069 net191
*1070 net192
*1071 net193
*1072 net194
*1073 net195
*1074 net196
*1075 net197
*1076 net198
*1077 net199
*1078 net2
*1079 net20
*1080 net200
*1081 net201
*1082 net202
*1083 net203
*1084 net204
*1085 net205
*1086 net206
*1087 net207
*1088 net208
*1089 net209
*1090 net21
*1091 net210
*1092 net211
*1093 net212
*1094 net213
*1095 net214
*1096 net215
*1097 net216
*1098 net217
*1099 net218
*1100 net219
*1101 net22
*1102 net220
*1103 net221
*1104 net222
*1105 net223
*1106 net224
*1107 net225
*1108 net226
*1109 net227
*1110 net228
*1111 net229
*1112 net23
*1113 net230
*1114 net231
*1115 net232
*1116 net233
*1117 net234
*1118 net235
*1119 net236
*1120 net237
*1121 net238
*1122 net239
*1123 net24
*1124 net240
*1125 net241
*1126 net242
*1127 net25
*1128 net26
*1129 net27
*1130 net28
*1131 net29
*1132 net3
*1133 net30
*1134 net31
*1135 net32
*1136 net33
*1137 net34
*1138 net35
*1139 net36
*1140 net37
*1141 net38
*1142 net39
*1143 net4
*1144 net40
*1145 net41
*1146 net42
*1147 net43
*1148 net44
*1149 net45
*1150 net46
*1151 net47
*1152 net48
*1153 net49
*1154 net5
*1155 net50
*1156 net51
*1157 net52
*1158 net53
*1159 net54
*1160 net55
*1161 net56
*1162 net57
*1163 net58
*1164 net59
*1165 net6
*1166 net60
*1167 net61
*1168 net62
*1169 net63
*1170 net64
*1171 net65
*1172 net66
*1173 net67
*1174 net68
*1175 net69
*1176 net7
*1177 net70
*1178 net71
*1179 net72
*1180 net73
*1181 net74
*1182 net75
*1183 net76
*1184 net77
*1185 net78
*1186 net79
*1187 net8
*1188 net80
*1189 net81
*1190 net82
*1191 net83
*1192 net84
*1193 net85
*1194 net86
*1195 net87
*1196 net88
*1197 net89
*1198 net9
*1199 net90
*1200 net91
*1201 net92
*1202 net93
*1203 net94
*1204 net95
*1205 net96
*1206 net97
*1207 net98
*1208 net99
*1209 ANTENNA__347__I0
*1210 ANTENNA__347__I1
*1211 ANTENNA__347__S
*1212 ANTENNA__348__I
*1213 ANTENNA__349__I
*1214 ANTENNA__350__I0
*1215 ANTENNA__350__I1
*1216 ANTENNA__350__S
*1217 ANTENNA__352__I
*1218 ANTENNA__354__I
*1219 ANTENNA__356__I
*1220 ANTENNA__357__A1
*1221 ANTENNA__357__A2
*1222 ANTENNA__358__A1
*1223 ANTENNA__359__I
*1224 ANTENNA__360__I
*1225 ANTENNA__361__I
*1226 ANTENNA__362__I
*1227 ANTENNA__363__A2
*1228 ANTENNA__364__I
*1229 ANTENNA__366__A1
*1230 ANTENNA__368__A2
*1231 ANTENNA__369__A1
*1232 ANTENNA__369__A2
*1233 ANTENNA__370__I
*1234 ANTENNA__371__I
*1235 ANTENNA__372__A1
*1236 ANTENNA__373__A2
*1237 ANTENNA__374__A1
*1238 ANTENNA__374__A2
*1239 ANTENNA__374__A3
*1240 ANTENNA__376__A1
*1241 ANTENNA__377__A1
*1242 ANTENNA__378__A1
*1243 ANTENNA__379__A1
*1244 ANTENNA__380__A1
*1245 ANTENNA__381__A1
*1246 ANTENNA__381__A2
*1247 ANTENNA__383__A1
*1248 ANTENNA__383__A2
*1249 ANTENNA__383__A3
*1250 ANTENNA__383__A4
*1251 ANTENNA__384__A1
*1252 ANTENNA__385__A1
*1253 ANTENNA__386__I
*1254 ANTENNA__387__A2
*1255 ANTENNA__388__A2
*1256 ANTENNA__389__A1
*1257 ANTENNA__389__A2
*1258 ANTENNA__389__A3
*1259 ANTENNA__389__A4
*1260 ANTENNA__390__A2
*1261 ANTENNA__391__I
*1262 ANTENNA__392__A2
*1263 ANTENNA__393__A2
*1264 ANTENNA__394__I
*1265 ANTENNA__395__A2
*1266 ANTENNA__396__A1
*1267 ANTENNA__396__A2
*1268 ANTENNA__396__A3
*1269 ANTENNA__396__A4
*1270 ANTENNA__397__A2
*1271 ANTENNA__398__A2
*1272 ANTENNA__399__A2
*1273 ANTENNA__401__A1
*1274 ANTENNA__401__A2
*1275 ANTENNA__401__A3
*1276 ANTENNA__401__A4
*1277 ANTENNA__402__A1
*1278 ANTENNA__402__A2
*1279 ANTENNA__402__B
*1280 ANTENNA__403__A2
*1281 ANTENNA__404__A2
*1282 ANTENNA__404__B
*1283 ANTENNA__405__A2
*1284 ANTENNA__406__A2
*1285 ANTENNA__407__A4
*1286 ANTENNA__409__I
*1287 ANTENNA__410__I
*1288 ANTENNA__411__A1
*1289 ANTENNA__411__A2
*1290 ANTENNA__412__A1
*1291 ANTENNA__412__A2
*1292 ANTENNA__413__A1
*1293 ANTENNA__413__A2
*1294 ANTENNA__414__I
*1295 ANTENNA__415__I
*1296 ANTENNA__416__I
*1297 ANTENNA__417__A1
*1298 ANTENNA__417__A2
*1299 ANTENNA__417__B1
*1300 ANTENNA__417__B2
*1301 ANTENNA__418__I
*1302 ANTENNA__419__I
*1303 ANTENNA__420__A3
*1304 ANTENNA__420__A4
*1305 ANTENNA__421__A1
*1306 ANTENNA__422__I
*1307 ANTENNA__423__A1
*1308 ANTENNA__423__A2
*1309 ANTENNA__424__I
*1310 ANTENNA__425__A3
*1311 ANTENNA__425__A4
*1312 ANTENNA__426__A1
*1313 ANTENNA__426__A2
*1314 ANTENNA__426__B1
*1315 ANTENNA__427__A1
*1316 ANTENNA__428__A1
*1317 ANTENNA__428__A2
*1318 ANTENNA__428__A3
*1319 ANTENNA__429__I
*1320 ANTENNA__430__A1
*1321 ANTENNA__430__A2
*1322 ANTENNA__430__B
*1323 ANTENNA__431__A2
*1324 ANTENNA__431__B
*1325 ANTENNA__432__A3
*1326 ANTENNA__432__A4
*1327 ANTENNA__433__A1
*1328 ANTENNA__433__A2
*1329 ANTENNA__433__B1
*1330 ANTENNA__433__C
*1331 ANTENNA__434__A1
*1332 ANTENNA__435__A1
*1333 ANTENNA__435__A2
*1334 ANTENNA__436__A3
*1335 ANTENNA__436__A4
*1336 ANTENNA__437__A1
*1337 ANTENNA__437__A2
*1338 ANTENNA__437__B1
*1339 ANTENNA__437__C
*1340 ANTENNA__438__A1
*1341 ANTENNA__439__I
*1342 ANTENNA__440__I
*1343 ANTENNA__441__A1
*1344 ANTENNA__442__I
*1345 ANTENNA__443__A1
*1346 ANTENNA__443__A2
*1347 ANTENNA__443__A3
*1348 ANTENNA__443__A4
*1349 ANTENNA__444__A1
*1350 ANTENNA__446__A2
*1351 ANTENNA__447__A1
*1352 ANTENNA__447__A2
*1353 ANTENNA__447__B1
*1354 ANTENNA__447__C2
*1355 ANTENNA__449__A1
*1356 ANTENNA__450__A1
*1357 ANTENNA__451__A1
*1358 ANTENNA__451__A2
*1359 ANTENNA__451__B1
*1360 ANTENNA__451__C2
*1361 ANTENNA__453__A1
*1362 ANTENNA__453__A2
*1363 ANTENNA__454__A1
*1364 ANTENNA__455__A1
*1365 ANTENNA__455__A2
*1366 ANTENNA__455__B1
*1367 ANTENNA__455__C2
*1368 ANTENNA__457__I
*1369 ANTENNA__459__I
*1370 ANTENNA__461__A1
*1371 ANTENNA__461__A2
*1372 ANTENNA__461__A3
*1373 ANTENNA__462__A1
*1374 ANTENNA__462__A2
*1375 ANTENNA__463__A1
*1376 ANTENNA__463__A2
*1377 ANTENNA__463__B1
*1378 ANTENNA__463__C2
*1379 ANTENNA__465__I
*1380 ANTENNA__466__A1
*1381 ANTENNA__467__A1
*1382 ANTENNA__467__A2
*1383 ANTENNA__468__A1
*1384 ANTENNA__470__A1
*1385 ANTENNA__470__A2
*1386 ANTENNA__471__A1
*1387 ANTENNA__472__A2
*1388 ANTENNA__474__A1
*1389 ANTENNA__474__A2
*1390 ANTENNA__474__C2
*1391 ANTENNA__476__A1
*1392 ANTENNA__476__B
*1393 ANTENNA__477__A1
*1394 ANTENNA__477__A2
*1395 ANTENNA__478__A1
*1396 ANTENNA__478__A2
*1397 ANTENNA__481__A1
*1398 ANTENNA__481__A2
*1399 ANTENNA__481__B2
*1400 ANTENNA__482__I
*1401 ANTENNA__483__B
*1402 ANTENNA__484__A1
*1403 ANTENNA__485__A1
*1404 ANTENNA__485__A2
*1405 ANTENNA__485__C2
*1406 ANTENNA__487__I
*1407 ANTENNA__488__A1
*1408 ANTENNA__488__A3
*1409 ANTENNA__489__A1
*1410 ANTENNA__491__A1
*1411 ANTENNA__491__A2
*1412 ANTENNA__491__C2
*1413 ANTENNA__493__A1
*1414 ANTENNA__494__A1
*1415 ANTENNA__495__A1
*1416 ANTENNA__495__A2
*1417 ANTENNA__495__C2
*1418 ANTENNA__497__I
*1419 ANTENNA__498__A1
*1420 ANTENNA__499__A1
*1421 ANTENNA__500__A1
*1422 ANTENNA__500__A2
*1423 ANTENNA__500__C2
*1424 ANTENNA__502__I
*1425 ANTENNA__503__A1
*1426 ANTENNA__503__A2
*1427 ANTENNA__503__A3
*1428 ANTENNA__504__A1
*1429 ANTENNA__505__B2
*1430 ANTENNA__508__A1
*1431 ANTENNA__508__C
*1432 ANTENNA__510__I
*1433 ANTENNA__511__A1
*1434 ANTENNA__512__A1
*1435 ANTENNA__512__A2
*1436 ANTENNA__512__C2
*1437 ANTENNA__513__A2
*1438 ANTENNA__514__A1
*1439 ANTENNA__515__A1
*1440 ANTENNA__515__A2
*1441 ANTENNA__516__A1
*1442 ANTENNA__516__A2
*1443 ANTENNA__518__I
*1444 ANTENNA__519__A1
*1445 ANTENNA__520__A1
*1446 ANTENNA__521__A2
*1447 ANTENNA__522__I
*1448 ANTENNA__523__A1
*1449 ANTENNA__523__A2
*1450 ANTENNA__523__C1
*1451 ANTENNA__523__C2
*1452 ANTENNA__525__I
*1453 ANTENNA__526__I
*1454 ANTENNA__527__A1
*1455 ANTENNA__527__B
*1456 ANTENNA__528__A1
*1457 ANTENNA__528__A2
*1458 ANTENNA__529__A1
*1459 ANTENNA__529__A2
*1460 ANTENNA__532__A1
*1461 ANTENNA__532__A2
*1462 ANTENNA__532__B1
*1463 ANTENNA__532__B2
*1464 ANTENNA__534__I
*1465 ANTENNA__535__A1
*1466 ANTENNA__536__I
*1467 ANTENNA__537__A1
*1468 ANTENNA__537__A2
*1469 ANTENNA__537__C2
*1470 ANTENNA__539__A1
*1471 ANTENNA__539__A2
*1472 ANTENNA__540__A1
*1473 ANTENNA__540__B
*1474 ANTENNA__542__A1
*1475 ANTENNA__542__A2
*1476 ANTENNA__542__B1
*1477 ANTENNA__542__B2
*1478 ANTENNA__544__A1
*1479 ANTENNA__545__A1
*1480 ANTENNA__545__A2
*1481 ANTENNA__545__C2
*1482 ANTENNA__547__A1
*1483 ANTENNA__548__A1
*1484 ANTENNA__548__A2
*1485 ANTENNA__549__A1
*1486 ANTENNA__549__A2
*1487 ANTENNA__550__A1
*1488 ANTENNA__551__A1
*1489 ANTENNA__551__A2
*1490 ANTENNA__551__B1
*1491 ANTENNA__551__B2
*1492 ANTENNA__552__B
*1493 ANTENNA__553__I
*1494 ANTENNA__554__I
*1495 ANTENNA__555__A1
*1496 ANTENNA__556__A1
*1497 ANTENNA__556__A2
*1498 ANTENNA__556__B1
*1499 ANTENNA__556__C2
*1500 ANTENNA__557__A1
*1501 ANTENNA__558__A1
*1502 ANTENNA__559__A1
*1503 ANTENNA__560__A1
*1504 ANTENNA__561__A1
*1505 ANTENNA__561__A2
*1506 ANTENNA__561__B1
*1507 ANTENNA__561__C2
*1508 ANTENNA__562__A1
*1509 ANTENNA__563__A1
*1510 ANTENNA__564__A1
*1511 ANTENNA__564__A2
*1512 ANTENNA__566__I
*1513 ANTENNA__567__A1
*1514 ANTENNA__568__A1
*1515 ANTENNA__569__A2
*1516 ANTENNA__570__I
*1517 ANTENNA__571__A1
*1518 ANTENNA__571__C2
*1519 ANTENNA__572__A1
*1520 ANTENNA__573__A1
*1521 ANTENNA__574__I
*1522 ANTENNA__575__I
*1523 ANTENNA__576__A1
*1524 ANTENNA__576__A2
*1525 ANTENNA__577__I
*1526 ANTENNA__578__I
*1527 ANTENNA__579__A1
*1528 ANTENNA__579__A2
*1529 ANTENNA__580__A1
*1530 ANTENNA__580__A2
*1531 ANTENNA__582__A1
*1532 ANTENNA__583__A1
*1533 ANTENNA__583__B2
*1534 ANTENNA__584__A1
*1535 ANTENNA__585__I
*1536 ANTENNA__586__I
*1537 ANTENNA__587__A1
*1538 ANTENNA__588__A1
*1539 ANTENNA__588__C2
*1540 ANTENNA__589__A1
*1541 ANTENNA__590__I
*1542 ANTENNA__591__A1
*1543 ANTENNA__591__A2
*1544 ANTENNA__592__A1
*1545 ANTENNA__592__B
*1546 ANTENNA__595__A1
*1547 ANTENNA__595__A2
*1548 ANTENNA__595__A3
*1549 ANTENNA__596__A1
*1550 ANTENNA__596__B1
*1551 ANTENNA__596__C
*1552 ANTENNA__597__A1
*1553 ANTENNA__598__A1
*1554 ANTENNA__599__A1
*1555 ANTENNA__599__A2
*1556 ANTENNA__600__A1
*1557 ANTENNA__600__B1
*1558 ANTENNA__600__C2
*1559 ANTENNA__601__A1
*1560 ANTENNA__602__A1
*1561 ANTENNA__602__A2
*1562 ANTENNA__602__A3
*1563 ANTENNA__603__A1
*1564 ANTENNA__603__A2
*1565 ANTENNA__604__A1
*1566 ANTENNA__604__B1
*1567 ANTENNA__604__C2
*1568 ANTENNA__605__A1
*1569 ANTENNA__606__A1
*1570 ANTENNA__606__A2
*1571 ANTENNA__606__A3
*1572 ANTENNA__607__I
*1573 ANTENNA__608__A1
*1574 ANTENNA__608__A2
*1575 ANTENNA__608__A3
*1576 ANTENNA__609__I
*1577 ANTENNA__610__A1
*1578 ANTENNA__610__B
*1579 ANTENNA__612__A1
*1580 ANTENNA__612__B2
*1581 ANTENNA__613__B
*1582 ANTENNA__614__A1
*1583 ANTENNA__614__A2
*1584 ANTENNA__614__A3
*1585 ANTENNA__614__A4
*1586 ANTENNA__615__I
*1587 ANTENNA__616__A1
*1588 ANTENNA__616__A2
*1589 ANTENNA__616__B
*1590 ANTENNA__618__A1
*1591 ANTENNA__619__A1
*1592 ANTENNA__619__A2
*1593 ANTENNA__619__B2
*1594 ANTENNA__620__B
*1595 ANTENNA__621__I
*1596 ANTENNA__622__A2
*1597 ANTENNA__623__A1
*1598 ANTENNA__623__A2
*1599 ANTENNA__624__I
*1600 ANTENNA__625__I0
*1601 ANTENNA__625__I1
*1602 ANTENNA__625__S
*1603 ANTENNA__627__I
*1604 ANTENNA__628__I
*1605 ANTENNA__629__I0
*1606 ANTENNA__629__I1
*1607 ANTENNA__631__I1
*1608 ANTENNA__633__I1
*1609 ANTENNA__635__I1
*1610 ANTENNA__637__I
*1611 ANTENNA__638__I0
*1612 ANTENNA__638__I1
*1613 ANTENNA__640__A2
*1614 ANTENNA__641__A1
*1615 ANTENNA__641__A2
*1616 ANTENNA__642__I0
*1617 ANTENNA__642__I1
*1618 ANTENNA__644__I1
*1619 ANTENNA__646__A2
*1620 ANTENNA__647__A1
*1621 ANTENNA__647__A2
*1622 ANTENNA__648__I1
*1623 ANTENNA__650__I
*1624 ANTENNA__651__I0
*1625 ANTENNA__651__I1
*1626 ANTENNA__653__I0
*1627 ANTENNA__653__I1
*1628 ANTENNA__655__I
*1629 ANTENNA__656__A2
*1630 ANTENNA__657__A1
*1631 ANTENNA__657__A2
*1632 ANTENNA__658__I
*1633 ANTENNA__659__A2
*1634 ANTENNA__660__A1
*1635 ANTENNA__660__A2
*1636 ANTENNA__661__I1
*1637 ANTENNA__663__I0
*1638 ANTENNA__663__I1
*1639 ANTENNA__665__I
*1640 ANTENNA__666__I0
*1641 ANTENNA__666__I1
*1642 ANTENNA__668__I0
*1643 ANTENNA__668__I1
*1644 ANTENNA__670__I1
*1645 ANTENNA__672__I0
*1646 ANTENNA__672__I1
*1647 ANTENNA__674__A1
*1648 ANTENNA__674__A2
*1649 ANTENNA__675__A1
*1650 ANTENNA__675__A2
*1651 ANTENNA__676__A2
*1652 ANTENNA__677__A1
*1653 ANTENNA__677__A2
*1654 ANTENNA__678__I
*1655 ANTENNA__679__I0
*1656 ANTENNA__679__I1
*1657 ANTENNA__679__S
*1658 ANTENNA__681__I
*1659 ANTENNA__682__A2
*1660 ANTENNA__683__A1
*1661 ANTENNA__683__A2
*1662 ANTENNA__684__I1
*1663 ANTENNA__684__S
*1664 ANTENNA__686__I0
*1665 ANTENNA__686__I1
*1666 ANTENNA__686__S
*1667 ANTENNA__688__I0
*1668 ANTENNA__688__I1
*1669 ANTENNA__688__S
*1670 ANTENNA__690__A1
*1671 ANTENNA__690__A2
*1672 ANTENNA__691__A1
*1673 ANTENNA__691__A2
*1674 ANTENNA__692__A2
*1675 ANTENNA__693__A1
*1676 ANTENNA__693__A2
*1677 ANTENNA__694__A2
*1678 ANTENNA__695__A1
*1679 ANTENNA__695__A2
*1680 ANTENNA__696__CLK
*1681 ANTENNA__696__D
*1682 ANTENNA__697__CLK
*1683 ANTENNA__698__CLK
*1684 ANTENNA__699__CLK
*1685 ANTENNA__700__CLK
*1686 ANTENNA__701__CLK
*1687 ANTENNA__702__CLK
*1688 ANTENNA__703__CLK
*1689 ANTENNA__704__CLK
*1690 ANTENNA__705__CLK
*1691 ANTENNA__706__CLK
*1692 ANTENNA__707__CLK
*1693 ANTENNA__708__CLK
*1694 ANTENNA__709__CLK
*1695 ANTENNA__710__CLK
*1696 ANTENNA__711__CLK
*1697 ANTENNA__712__CLK
*1698 ANTENNA__713__CLK
*1699 ANTENNA__714__CLK
*1700 ANTENNA__715__CLK
*1701 ANTENNA__716__CLK
*1702 ANTENNA__717__CLK
*1703 ANTENNA__718__CLK
*1704 ANTENNA__719__CLK
*1705 ANTENNA__720__CLK
*1706 ANTENNA__721__CLK
*1707 ANTENNA__722__CLK
*1708 ANTENNA__723__CLK
*1709 ANTENNA__724__CLK
*1710 ANTENNA__725__CLK
*1711 ANTENNA__726__CLK
*1712 ANTENNA__727__CLK
*1713 ANTENNA__728__CLK
*1714 ANTENNA__729__CLK
*1715 ANTENNA__730__CLK
*1716 ANTENNA__731__CLK
*1717 ANTENNA__732__CLK
*1718 ANTENNA__733__CLK
*1719 ANTENNA__734__CLK
*1720 ANTENNA__735__CLK
*1721 ANTENNA__736__CLK
*1722 ANTENNA__737__CLK
*1723 ANTENNA__738__CLK
*1724 ANTENNA__739__CLK
*1725 ANTENNA__740__CLK
*1726 ANTENNA__741__CLK
*1727 ANTENNA__742__CLK
*1728 ANTENNA__743__CLK
*1729 ANTENNA__744__CLK
*1730 ANTENNA__745__CLK
*1731 ANTENNA__746__CLK
*1732 ANTENNA__747__CLK
*1733 ANTENNA__748__CLK
*1734 ANTENNA__749__CLK
*1735 ANTENNA__750__CLK
*1736 ANTENNA__751__CLK
*1737 ANTENNA__752__CLK
*1738 ANTENNA__753__CLK
*1739 ANTENNA__754__CLK
*1740 ANTENNA__755__CLK
*1741 ANTENNA__756__CLK
*1742 ANTENNA__757__CLK
*1743 ANTENNA__758__CLK
*1744 ANTENNA__759__CLK
*1745 ANTENNA__760__CLK
*1746 ANTENNA__867__I